

        *** GPGPU-Sim Simulator Version 4.2.0  [build gpgpu-sim_git-commit-6b244a5d3be7811f16c312905c1c7fee137ac7a4_modified_0.0] ***


GPGPU-Sim PTX: simulation mode 0 (can change with PTX_SIM_MODE_FUNC environment variable:
               1=functional simulation only, 0=detailed performance simulator)
GPGPU-Sim PTX: overriding embedded ptx with ptx file (PTX_SIM_USE_PTX_FILE is set)
GPGPU-Sim: Configuration options:

-save_embedded_ptx                      0 # saves ptx files embedded in binary as <n>.ptx
-keep                                   0 # keep intermediate files created by GPGPU-Sim when interfacing with external programs
-gpgpu_ptx_save_converted_ptxplus                    0 # Saved converted ptxplus to a file
-gpgpu_occupancy_sm_number                   75 # The SM number to pass to ptxas when getting register usage for computing GPU occupancy. This parameter is required in the config.
-ptx_opcode_latency_int           4,4,4,4,21 # Opcode latencies for integers <ADD,MAX,MUL,MAD,DIV,SHFL>Default 1,1,19,25,145,32
-ptx_opcode_latency_fp           4,4,4,4,39 # Opcode latencies for single precision floating points <ADD,MAX,MUL,MAD,DIV>Default 1,1,1,1,30
-ptx_opcode_latency_dp      64,64,64,64,330 # Opcode latencies for double precision floating points <ADD,MAX,MUL,MAD,DIV>Default 8,8,8,8,335
-ptx_opcode_latency_sfu                   21 # Opcode latencies for SFU instructionsDefault 8
-ptx_opcode_latency_tesnor                   64 # Opcode latencies for Tensor instructionsDefault 64
-ptx_opcode_initiation_int            2,2,2,2,2 # Opcode initiation intervals for integers <ADD,MAX,MUL,MAD,DIV,SHFL>Default 1,1,4,4,32,4
-ptx_opcode_initiation_fp            2,2,2,2,4 # Opcode initiation intervals for single precision floating points <ADD,MAX,MUL,MAD,DIV>Default 1,1,1,1,5
-ptx_opcode_initiation_dp      64,64,64,64,130 # Opcode initiation intervals for double precision floating points <ADD,MAX,MUL,MAD,DIV>Default 8,8,8,8,130
-ptx_opcode_initiation_sfu                    8 # Opcode initiation intervals for sfu instructionsDefault 8
-ptx_opcode_initiation_tensor                   64 # Opcode initiation intervals for tensor instructionsDefault 64
-cdp_latency         7200,8000,100,12000,1600 # CDP API latency <cudaStreamCreateWithFlags, cudaGetParameterBufferV2_init_perWarp, cudaGetParameterBufferV2_perKernel, cudaLaunchDeviceV2_init_perWarp, cudaLaunchDevicV2_perKernel>Default 7200,8000,100,12000,1600
-network_mode                           2 # Interconnection network mode
-inter_config_file                   mesh # Interconnection network config file
-icnt_in_buffer_limit                  512 # in_buffer_limit
-icnt_out_buffer_limit                  512 # out_buffer_limit
-icnt_subnets                           2 # subnets
-icnt_arbiter_algo                      1 # arbiter_algo
-icnt_verbose                           0 # inct_verbose
-icnt_grant_cycles                      1 # grant_cycles
-gpgpu_ptx_use_cuobjdump                    1 # Use cuobjdump to extract ptx and sass from binaries
-gpgpu_experimental_lib_support                    0 # Try to extract code from cuda libraries [Broken because of unknown cudaGetExportTable]
-checkpoint_option                      0 #  checkpointing flag (0 = no checkpoint)
-checkpoint_kernel                      1 #  checkpointing during execution of which kernel (1- 1st kernel)
-checkpoint_CTA                         0 #  checkpointing after # of CTA (< less than total CTA)
-resume_option                          0 #  resume flag (0 = no resume)
-resume_kernel                          0 #  Resume from which kernel (1= 1st kernel)
-resume_CTA                             0 #  resume from which CTA 
-checkpoint_CTA_t                       0 #  resume from which CTA 
-checkpoint_insn_Y                      0 #  resume from which CTA 
-gpgpu_ptx_convert_to_ptxplus                    0 # Convert SASS (native ISA) to ptxplus and run ptxplus
-gpgpu_ptx_force_max_capability                   75 # Force maximum compute capability
-gpgpu_ptx_inst_debug_to_file                    0 # Dump executed instructions' debug information to file
-gpgpu_ptx_inst_debug_file       inst_debug.txt # Executed instructions' debug output file
-gpgpu_ptx_inst_debug_thread_uid                    1 # Thread UID for executed instructions' debug output
-gpgpu_simd_model                       1 # 1 = post-dominator
-gpgpu_shader_core_pipeline              1024:32 # shader core pipeline config, i.e., {<nthread>:<warpsize>}
-gpgpu_tex_cache:l1  N:4:128:256,L:R:m:N:L,T:512:8,128:2 # per-shader L1 texture cache  (READ-ONLY) config  {<nsets>:<bsize>:<assoc>,<rep>:<wr>:<alloc>:<wr_alloc>,<mshr>:<N>:<merge>,<mq>:<rf>}
-gpgpu_const_cache:l1 N:128:64:8,L:R:f:N:L,S:2:64,4 # per-shader L1 constant memory cache  (READ-ONLY) config  {<nsets>:<bsize>:<assoc>,<rep>:<wr>:<alloc>:<wr_alloc>,<mshr>:<N>:<merge>,<mq>} 
-gpgpu_cache:il1     N:64:128:16,L:R:f:N:L,S:2:48,4 # shader L1 instruction cache config  {<nsets>:<bsize>:<assoc>,<rep>:<wr>:<alloc>:<wr_alloc>,<mshr>:<N>:<merge>,<mq>} 
-gpgpu_cache:dl1     S:4:128:64,L:T:m:L:L,A:256:32,16:0,32 # per-shader L1 data cache config  {<nsets>:<bsize>:<assoc>,<rep>:<wr>:<alloc>:<wr_alloc>,<mshr>:<N>:<merge>,<mq> | none}
-gpgpu_l1_cache_write_ratio                   25 # L1D write ratio
-gpgpu_l1_banks                         4 # The number of L1 cache banks
-gpgpu_l1_banks_byte_interleaving                   32 # l1 banks byte interleaving granularity
-gpgpu_l1_banks_hashing_function                    0 # l1 banks hashing function
-gpgpu_l1_latency                      32 # L1 Hit Latency
-gpgpu_smem_latency                    30 # smem Latency
-gpgpu_cache:dl1PrefL1                 none # per-shader L1 data cache config  {<nsets>:<bsize>:<assoc>,<rep>:<wr>:<alloc>:<wr_alloc>,<mshr>:<N>:<merge>,<mq> | none}
-gpgpu_cache:dl1PrefShared                 none # per-shader L1 data cache config  {<nsets>:<bsize>:<assoc>,<rep>:<wr>:<alloc>:<wr_alloc>,<mshr>:<N>:<merge>,<mq> | none}
-gpgpu_gmem_skip_L1D                    0 # global memory access skip L1D cache (implements -Xptxas -dlcm=cg, default=no skip)
-gpgpu_perfect_mem                      0 # enable perfect memory mode (no cache miss)
-n_regfile_gating_group                    4 # group of lanes that should be read/written together)
-gpgpu_clock_gated_reg_file                    0 # enable clock gated reg file for power calculations
-gpgpu_clock_gated_lanes                    0 # enable clock gated lanes for power calculations
-gpgpu_shader_registers                65536 # Number of registers per shader core. Limits number of concurrent CTAs. (default 8192)
-gpgpu_registers_per_block                65536 # Maximum number of registers per CTA. (default 8192)
-gpgpu_ignore_resources_limitation                    0 # gpgpu_ignore_resources_limitation (default 0)
-gpgpu_shader_cta                      16 # Maximum number of concurrent CTAs in shader (default 8)
-gpgpu_num_cta_barriers                   16 # Maximum number of named barriers per CTA (default 16)
-gpgpu_n_clusters                      30 # number of processing clusters
-gpgpu_n_cores_per_cluster                    1 # number of simd cores per cluster
-gpgpu_n_cluster_ejection_buffer_size                   32 # number of packets in ejection buffer
-gpgpu_n_ldst_response_buffer_size                    2 # number of response packets in ld/st unit ejection buffer
-gpgpu_shmem_per_block                49152 # Size of shared memory per thread block or CTA (default 48kB)
-gpgpu_shmem_size                   65536 # Size of shared memory per shader core (default 16kB)
-gpgpu_shmem_option                 32,64 # Option list of shared memory sizes
-gpgpu_unified_l1d_size                   96 # Size of unified data cache(L1D + shared memory) in KB
-gpgpu_adaptive_cache_config                    1 # adaptive_cache_config
-gpgpu_shmem_sizeDefault                65536 # Size of shared memory per shader core (default 16kB)
-gpgpu_shmem_size_PrefL1                16384 # Size of shared memory per shader core (default 16kB)
-gpgpu_shmem_size_PrefShared                16384 # Size of shared memory per shader core (default 16kB)
-gpgpu_shmem_num_banks                   32 # Number of banks in the shared memory in each shader core (default 16)
-gpgpu_shmem_limited_broadcast                    0 # Limit shared memory to do one broadcast per cycle (default on)
-gpgpu_shmem_warp_parts                    1 # Number of portions a warp is divided into for shared memory bank conflict check 
-gpgpu_mem_unit_ports                    1 # The number of memory transactions allowed per core cycle
-gpgpu_shmem_warp_parts                    1 # Number of portions a warp is divided into for shared memory bank conflict check 
-gpgpu_warpdistro_shader                   -1 # Specify which shader core to collect the warp size distribution from
-gpgpu_warp_issue_shader                    0 # Specify which shader core to collect the warp issue distribution from
-gpgpu_local_mem_map                    1 # Mapping from local memory space address to simulated GPU physical address space (default = enabled)
-gpgpu_num_reg_banks                    8 # Number of register banks (default = 8)
-gpgpu_reg_bank_use_warp_id                    0 # Use warp ID in mapping registers to banks (default = off)
-gpgpu_sub_core_model                    1 # Sub Core Volta/Pascal model (default = off)
-gpgpu_enable_specialized_operand_collector                    0 # enable_specialized_operand_collector
-gpgpu_operand_collector_num_units_sp                    4 # number of collector units (default = 4)
-gpgpu_operand_collector_num_units_dp                    0 # number of collector units (default = 0)
-gpgpu_operand_collector_num_units_sfu                    4 # number of collector units (default = 4)
-gpgpu_operand_collector_num_units_int                    0 # number of collector units (default = 0)
-gpgpu_operand_collector_num_units_tensor_core                    4 # number of collector units (default = 4)
-gpgpu_operand_collector_num_units_mem                    2 # number of collector units (default = 2)
-gpgpu_operand_collector_num_units_gen                    8 # number of collector units (default = 0)
-gpgpu_operand_collector_num_in_ports_sp                    1 # number of collector unit in ports (default = 1)
-gpgpu_operand_collector_num_in_ports_dp                    0 # number of collector unit in ports (default = 0)
-gpgpu_operand_collector_num_in_ports_sfu                    1 # number of collector unit in ports (default = 1)
-gpgpu_operand_collector_num_in_ports_int                    0 # number of collector unit in ports (default = 0)
-gpgpu_operand_collector_num_in_ports_tensor_core                    1 # number of collector unit in ports (default = 1)
-gpgpu_operand_collector_num_in_ports_mem                    1 # number of collector unit in ports (default = 1)
-gpgpu_operand_collector_num_in_ports_gen                    8 # number of collector unit in ports (default = 0)
-gpgpu_operand_collector_num_out_ports_sp                    1 # number of collector unit in ports (default = 1)
-gpgpu_operand_collector_num_out_ports_dp                    0 # number of collector unit in ports (default = 0)
-gpgpu_operand_collector_num_out_ports_sfu                    1 # number of collector unit in ports (default = 1)
-gpgpu_operand_collector_num_out_ports_int                    0 # number of collector unit in ports (default = 0)
-gpgpu_operand_collector_num_out_ports_tensor_core                    1 # number of collector unit in ports (default = 1)
-gpgpu_operand_collector_num_out_ports_mem                    1 # number of collector unit in ports (default = 1)
-gpgpu_operand_collector_num_out_ports_gen                    8 # number of collector unit in ports (default = 0)
-gpgpu_coalesce_arch                   75 # Coalescing arch (GT200 = 13, Fermi = 20)
-gpgpu_num_sched_per_core                    4 # Number of warp schedulers per core
-gpgpu_max_insn_issue_per_warp                    1 # Max number of instructions that can be issued per warp in one cycle by scheduler (either 1 or 2)
-gpgpu_dual_issue_diff_exec_units                    1 # should dual issue use two different execution unit resources (Default = 1)
-gpgpu_simt_core_sim_order                    1 # Select the simulation order of cores in a cluster (0=Fix, 1=Round-Robin)
-gpgpu_pipeline_widths 4,4,4,4,4,4,4,4,4,4,8,4,4 # Pipeline widths ID_OC_SP,ID_OC_DP,ID_OC_INT,ID_OC_SFU,ID_OC_MEM,OC_EX_SP,OC_EX_DP,OC_EX_INT,OC_EX_SFU,OC_EX_MEM,EX_WB,ID_OC_TENSOR_CORE,OC_EX_TENSOR_CORE
-gpgpu_tensor_core_avail                    1 # Tensor Core Available (default=0)
-gpgpu_num_sp_units                     4 # Number of SP units (default=1)
-gpgpu_num_dp_units                     4 # Number of DP units (default=0)
-gpgpu_num_int_units                    4 # Number of INT units (default=0)
-gpgpu_num_sfu_units                    4 # Number of SF units (default=1)
-gpgpu_num_tensor_core_units                    4 # Number of tensor_core units (default=1)
-gpgpu_num_mem_units                    1 # Number if ldst units (default=1) WARNING: not hooked up to anything
-gpgpu_scheduler                      lrr # Scheduler configuration: < lrr | gto | two_level_active > If two_level_active:<num_active_warps>:<inner_prioritization>:<outer_prioritization>For complete list of prioritization values see shader.h enum scheduler_prioritization_typeDefault: gto
-gpgpu_concurrent_kernel_sm                    0 # Support concurrent kernels on a SM (default = disabled)
-gpgpu_perfect_inst_const_cache                    1 # perfect inst and const cache mode, so all inst and const hits in the cache(default = disabled)
-gpgpu_inst_fetch_throughput                    4 # the number of fetched intruction per warp each cycle
-gpgpu_reg_file_port_throughput                    2 # the number ports of the register file
-specialized_unit_1         0,4,4,4,4,BRA # specialized unit config {<enabled>,<num_units>:<latency>:<initiation>,<ID_OC_SPEC>:<OC_EX_SPEC>,<NAME>}
-specialized_unit_2         0,4,4,4,4,BRA # specialized unit config {<enabled>,<num_units>:<latency>:<initiation>,<ID_OC_SPEC>:<OC_EX_SPEC>,<NAME>}
-specialized_unit_3         0,4,4,4,4,BRA # specialized unit config {<enabled>,<num_units>:<latency>:<initiation>,<ID_OC_SPEC>:<OC_EX_SPEC>,<NAME>}
-specialized_unit_4         0,4,4,4,4,BRA # specialized unit config {<enabled>,<num_units>:<latency>:<initiation>,<ID_OC_SPEC>:<OC_EX_SPEC>,<NAME>}
-specialized_unit_5         0,4,4,4,4,BRA # specialized unit config {<enabled>,<num_units>:<latency>:<initiation>,<ID_OC_SPEC>:<OC_EX_SPEC>,<NAME>}
-specialized_unit_6         0,4,4,4,4,BRA # specialized unit config {<enabled>,<num_units>:<latency>:<initiation>,<ID_OC_SPEC>:<OC_EX_SPEC>,<NAME>}
-specialized_unit_7         0,4,4,4,4,BRA # specialized unit config {<enabled>,<num_units>:<latency>:<initiation>,<ID_OC_SPEC>:<OC_EX_SPEC>,<NAME>}
-specialized_unit_8         0,4,4,4,4,BRA # specialized unit config {<enabled>,<num_units>:<latency>:<initiation>,<ID_OC_SPEC>:<OC_EX_SPEC>,<NAME>}
-gpgpu_perf_sim_memcpy                    1 # Fill the L2 cache on memcpy
-gpgpu_simple_dram_model                    0 # simple_dram_model with fixed latency and BW
-gpgpu_dram_scheduler                    1 # 0 = fifo, 1 = FR-FCFS (defaul)
-gpgpu_dram_partition_queues          64:64:64:64 # i2$:$2d:d2$:$2i
-l2_ideal                               0 # Use a ideal L2 cache that always hit
-gpgpu_cache:dl2     S:64:128:16,L:B:m:L:P,A:192:4,32:0,32 # unified banked L2 data cache config  {<nsets>:<bsize>:<assoc>,<rep>:<wr>:<alloc>:<wr_alloc>,<mshr>:<N>:<merge>,<mq>}
-gpgpu_cache:dl2_texture_only                    0 # L2 cache used for texture only
-gpgpu_n_mem                           12 # number of memory modules (e.g. memory controllers) in gpu
-gpgpu_n_sub_partition_per_mchannel                    2 # number of memory subpartition in each memory module
-gpgpu_n_mem_per_ctrlr                    1 # number of memory chips per memory controller
-gpgpu_memlatency_stat                   14 # track and display latency statistics 0x2 enables MC, 0x4 enables queue logs
-gpgpu_frfcfs_dram_sched_queue_size                   64 # 0 = unlimited (default); # entries per chip
-gpgpu_dram_return_queue_size                  192 # 0 = unlimited (default); # entries per chip
-gpgpu_dram_buswidth                    2 # default = 4 bytes (8 bytes per cycle at DDR)
-gpgpu_dram_burst_length                   16 # Burst length of each DRAM request (default = 4 data bus cycle)
-dram_data_command_freq_ratio                    4 # Frequency ratio between DRAM data bus and command bus (default = 2 times, i.e. DDR)
-gpgpu_dram_timing_opt nbk=16:CCD=4:RRD=12:RCD=24:RAS=55:RP=24:RC=78:CL=24:WL=8:CDLR=10:WR=24:nbkgrp=4:CCDL=6:RTPL=4 # DRAM timing parameters = {nbk:tCCD:tRRD:tRCD:tRAS:tRP:tRC:CL:WL:tCDLR:tWR:nbkgrp:tCCDL:tRTPL}
-gpgpu_l2_rop_latency                  194 # ROP queue latency (default 85)
-dram_latency                          96 # DRAM latency (default 30)
-dram_dual_bus_interface                    0 # dual_bus_interface (default = 0) 
-dram_bnk_indexing_policy                    0 # dram_bnk_indexing_policy (0 = normal indexing, 1 = Xoring with the higher bits) (Default = 0)
-dram_bnkgrp_indexing_policy                    1 # dram_bnkgrp_indexing_policy (0 = take higher bits, 1 = take lower bits) (Default = 0)
-dram_seperate_write_queue_enable                    0 # Seperate_Write_Queue_Enable
-dram_write_queue_size             32:28:16 # Write_Queue_Size
-dram_elimnate_rw_turnaround                    0 # elimnate_rw_turnaround i.e set tWTR and tRTW = 0
-icnt_flit_size                        40 # icnt_flit_size
-gpgpu_mem_addr_mapping dramid@8;00000000.00000000.00000000.00000000.0000RRRR.RRRRRRRR.RBBBCCCC.BCCSSSSS # mapping memory address to dram model {dramid@<start bit>;<memory address map>}
-gpgpu_mem_addr_test                    0 # run sweep test to check address mapping for aliased address
-gpgpu_mem_address_mask                    1 # 0 = old addressing mask, 1 = new addressing mask, 2 = new add. mask + flipped bank sel and chip sel bits
-gpgpu_memory_partition_indexing                    0 # 0 = no indexing, 1 = bitwise xoring, 2 = IPoly, 3 = custom indexing
-accelwattch_xml_file accelwattch_sass_sim.xml # AccelWattch XML file
-power_simulation_enabled                    0 # Turn on power simulator (1=On, 0=Off)
-power_per_cycle_dump                    0 # Dump detailed power output each cycle
-hw_perf_file_name            hw_perf.csv # Hardware Performance Statistics file
-hw_perf_bench_name                       # Kernel Name in Hardware Performance Statistics file
-power_simulation_mode                    0 # Switch performance counter input for power simulation (0=Sim, 1=HW, 2=HW-Sim Hybrid)
-dvfs_enabled                           0 # Turn on DVFS for power model
-aggregate_power_stats                    0 # Accumulate power across all kernels
-accelwattch_hybrid_perfsim_L1_RH                    0 # Get L1 Read Hits for Accelwattch-Hybrid from Accel-Sim
-accelwattch_hybrid_perfsim_L1_RM                    0 # Get L1 Read Misses for Accelwattch-Hybrid from Accel-Sim
-accelwattch_hybrid_perfsim_L1_WH                    0 # Get L1 Write Hits for Accelwattch-Hybrid from Accel-Sim
-accelwattch_hybrid_perfsim_L1_WM                    0 # Get L1 Write Misses for Accelwattch-Hybrid from Accel-Sim
-accelwattch_hybrid_perfsim_L2_RH                    0 # Get L2 Read Hits for Accelwattch-Hybrid from Accel-Sim
-accelwattch_hybrid_perfsim_L2_RM                    0 # Get L2 Read Misses for Accelwattch-Hybrid from Accel-Sim
-accelwattch_hybrid_perfsim_L2_WH                    0 # Get L2 Write Hits for Accelwattch-Hybrid from Accel-Sim
-accelwattch_hybrid_perfsim_L2_WM                    0 # Get L2 Write Misses for Accelwattch-Hybrid from Accel-Sim
-accelwattch_hybrid_perfsim_CC_ACC                    0 # Get Constant Cache Acesses for Accelwattch-Hybrid from Accel-Sim
-accelwattch_hybrid_perfsim_SHARED_ACC                    0 # Get Shared Memory Acesses for Accelwattch-Hybrid from Accel-Sim
-accelwattch_hybrid_perfsim_DRAM_RD                    0 # Get DRAM Reads for Accelwattch-Hybrid from Accel-Sim
-accelwattch_hybrid_perfsim_DRAM_WR                    0 # Get DRAM Writes for Accelwattch-Hybrid from Accel-Sim
-accelwattch_hybrid_perfsim_NOC                    0 # Get Interconnect Acesses for Accelwattch-Hybrid from Accel-Sim
-accelwattch_hybrid_perfsim_PIPE_DUTY                    0 # Get Pipeline Duty Cycle Acesses for Accelwattch-Hybrid from Accel-Sim
-accelwattch_hybrid_perfsim_NUM_SM_IDLE                    0 # Get Number of Idle SMs for Accelwattch-Hybrid from Accel-Sim
-accelwattch_hybrid_perfsim_CYCLES                    0 # Get Executed Cycles for Accelwattch-Hybrid from Accel-Sim
-accelwattch_hybrid_perfsim_VOLTAGE                    0 # Get Chip Voltage for Accelwattch-Hybrid from Accel-Sim
-power_trace_enabled                    0 # produce a file for the power trace (1=On, 0=Off)
-power_trace_zlevel                     6 # Compression level of the power trace output log (0=no comp, 9=highest)
-steady_power_levels_enabled                    0 # produce a file for the steady power levels (1=On, 0=Off)
-steady_state_definition                  8:4 # allowed deviation:number of samples
-gpgpu_max_cycle                        0 # terminates gpu simulation early (0 = no limit)
-gpgpu_max_insn                         0 # terminates gpu simulation early (0 = no limit)
-gpgpu_max_cta                          0 # terminates gpu simulation early (0 = no limit)
-gpgpu_max_completed_cta                    0 # terminates gpu simulation early (0 = no limit)
-gpgpu_runtime_stat                   500 # display runtime statistics such as dram utilization {<freq>:<flag>}
-liveness_message_freq                    1 # Minimum number of seconds between simulation liveness messages (0 = always print)
-gpgpu_compute_capability_major                    7 # Major compute capability version number
-gpgpu_compute_capability_minor                    5 # Minor compute capability version number
-gpgpu_flush_l1_cache                    1 # Flush L1 cache at the end of each kernel call
-gpgpu_flush_l2_cache                    0 # Flush L2 cache at the end of each kernel call
-gpgpu_deadlock_detect                    1 # Stop the simulation at deadlock (1=on (default), 0=off)
-gpgpu_ptx_instruction_classification                    0 # if enabled will classify ptx instruction types per kernel (Max 255 kernels now)
-gpgpu_ptx_sim_mode                     0 # Select between Performance (default) or Functional simulation (1)
-gpgpu_clock_domains 1365:1365:1365:3500.5 # Clock Domain Frequencies in MhZ {<Core Clock>:<ICNT Clock>:<L2 Clock>:<DRAM Clock>}
-gpgpu_max_concurrent_kernel                    8 # maximum kernels that can run concurrently on GPU
-gpgpu_cflog_interval                    0 # Interval between each snapshot in control flow logger
-visualizer_enabled                     0 # Turn on visualizer output (1=On, 0=Off)
-visualizer_outputfile                 NULL # Specifies the output log file for visualizer
-visualizer_zlevel                      6 # Compression level of the visualizer output log (0=no comp, 9=highest)
-gpgpu_stack_size_limit                 1024 # GPU thread stack size
-gpgpu_heap_size_limit              8388608 # GPU malloc heap size 
-gpgpu_runtime_sync_depth_limit                    2 # GPU device runtime synchronize depth
-gpgpu_runtime_pending_launch_count_limit                 2048 # GPU device runtime pending launch count
-trace_enabled                          0 # Turn on traces
-trace_components                    none # comma seperated list of traces to enable. Complete list found in trace_streams.tup. Default none
-trace_sampling_core                    0 # The core which is printed using CORE_DPRINTF. Default 0
-trace_sampling_memory_partition                   -1 # The memory partition which is printed using MEMPART_DPRINTF. Default -1 (i.e. all)
-enable_ptx_file_line_stats                    1 # Turn on PTX source line statistic profiling. (1 = On)
-ptx_line_stats_filename gpgpu_inst_stats.txt # Output file for PTX source line statistics.
-gpgpu_kernel_launch_latency                 5000 # Kernel launch latency in cycles. Default: 0
-gpgpu_cdp_enabled                      0 # Turn on CDP
-gpgpu_TB_launch_latency                    0 # thread block launch latency in cycles. Default: 0
DRAM Timing Options:
nbk                                    16 # number of banks
CCD                                     4 # column to column delay
RRD                                    12 # minimal delay between activation of rows in different banks
RCD                                    24 # row to column dela4273b0b56c8c3fcfd271b1aab25c80d9  /benchmarks/graph_benchmarks_original/pannotia/bc/bc
Extracting PTX file and ptxas options    1: bc.1.sm_75.ptx -arch=sm_75
y
RAS                                    55 # time needed to activate row
RP                                     24 # time needed to precharge (deactivate) row
RC                                     78 # row cycle time
CDLR                                   10 # switching from write to read (changes tWTR)
WR                                     24 # last data-in to row precharge
CL                                     24 # CAS latency
WL                                      8 # Write latency
nbkgrp                                  4 # number of bank groups
CCDL                                    6 # column to column delay between accesses to different bank groups
RTPL                                    4 # read to precharge delay between accesses to different bank groups
Total number of memory sub partition = 24
addr_dec_mask[CHIP]  = 0000000000000000 	high:64 low:0
addr_dec_mask[BK]    = 0000000000007080 	high:15 low:7
addr_dec_mask[ROW]   = 000000000fff8000 	high:28 low:15
addr_dec_mask[COL]   = 0000000000000f7f 	high:12 low:0
addr_dec_mask[BURST] = 000000000000001f 	high:5 low:0
sub_partition_id_mask = 0000000000000080
GPGPU-Sim uArch: clock freqs: 1365000000.000000:1365000000.000000:1365000000.000000:3500500000.000000
GPGPU-Sim uArch: clock periods: 0.00000000073260073260:0.00000000073260073260:0.00000000073260073260:0.00000000028567347522
*** Initializing Memory Statistics ***
GPGPU-Sim uArch: performance model initialization complete.
self exe links to: /benchmarks/graph_benchmarks_original/pannotia/bc/bc
self exe links to: /benchmarks/graph_benchmarks_original/pannotia/bc/bc
11.0
GPGPU-Sim PTX: __cudaRegisterFatBinary, fat_cubin_handle = 1, filename=default
self exe links to: /benchmarks/graph_benchmarks_original/pannotia/bc/bc
Running md5sum using "md5sum /benchmarks/graph_benchmarks_original/pannotia/bc/bc "
self exe links to: /benchmarks/graph_benchmarks_original/pannotia/bc/bc
Extracting specific PTX file named bc.1.sm_75.ptx 
GPGPU-Sim PTX: __cudaRegisterFunction _Z8clean_bcPfi : hostFun 0x0x55c57d402360, fat_cubin_handle = 1
GPGPU-Sim PTX: Parsing bc.1.sm_75.ptx
GPGPU-Sim PTX: instruction assembly for function '_Z10bfs_kernelPiS_S_PfS_iii'...   done.
GPGPU-Sim PTX: instruction assembly for function '_Z16backtrack_kernelPiS_S_PfS0_iiiiS0_'...   done.
GPGPU-Sim PTX: instruction assembly for function '_Z15back_sum_kerneliiPiPfS0_i'...   done.
GPGPU-Sim PTX: instruction assembly for function '_Z14clean_1d_arrayiPiPfS0_i'...   done.
GPGPU-Sim PTX: instruction assembly for function '_Z14clean_2d_arrayPii'...   done.
GPGPU-Sim PTX: instruction assembly for function '_Z8clean_bcPfi'...   done.
GPGPU-Sim PTX: finished parsing EMBEDDED .ptx file bc.1.sm_75.ptx
GPGPU-Sim PTX: loading globals with explicit initializers... 
GPGPU-Sim PTX: finished loading globals (0 bytes total).
GPGPU-Sim PTX: loading constants with explicit initializers...  done.
GPGPU-Sim PTX: Loading PTXInfo from bc.1.sm_75.ptx
GPGPU-Sim PTX: Kernel '_Z8clean_bcPfi' : regs=6, lmem=0, smem=0, cmem=364
GPGPU-Sim PTX: Kernel '_Z14clean_2d_arrayPii' : regs=6, lmem=0, smem=0, cmem=364
GPGPU-Sim PTX: Kernel '_Z14clean_1d_arrayiPiPfS0_i' : regs=14, lmem=0, smem=0, cmem=388
GPGPU-Sim PTX: Kernel '_Z15back_sum_kerneliiPiPfS0_i' : regs=10, lmem=0, smem=0, cmem=388
GPGPU-Sim PTX: Kernel '_Z16backtrack_kernelPiS_S_PfS0_iiiiS0_' : regs=27, lmem=0, smem=0, cmem=416
GPGPU-Sim PTX: Kernel '_Z10bfs_kernelPiS_S_PfS_iii' : regs=20, lmem=0, smem=0, cmem=404
GPGPU-Sim PTX: __cudaRegisterFunction _Z14clean_2d_arrayPii : hostFun 0x0x55c57d401f80, fat_cubin_handle = 1
GPGPU-Sim PTX: __cudaRegisterFunction _Z14clean_1d_arrayiPiPfS0_i : hostFun 0x0x55c57d402220, fat_cubin_handle = 1
GPGPU-Sim PTX: __cudaRegisterFunction _Z15back_sum_kerneliiPiPfS0_i : hostFun 0x0x55c57d401e20, fat_cubin_handle = 1
GPGPU-Sim PTX: __cudaRegisterFunction _Z16backtrack_kernelPiS_S_PfS0_iiiiS0_ : hostFun 0x0x55c57d401c40, fat_cubin_handle = 1
GPGPU-Sim PTX: __cudaRegisterFunction _Z10bfs_kernelPiS_S_PfS_iii : hostFun 0x0x55c57d402070, fat_cubin_handle = 1
Opening file: ../datasets/coAuthorsDBLP.graph
This is an undirected graph
Read from file: num_nodes = 299067, num_edges = 1955352
GPGPU-Sim PTX: Setting up arguments for 8 bytes starting at 0x7ffebc8de228..
GPGPU-Sim PTX: Setting up arguments for 4 bytes starting at 0x7ffebc8de224..

GPGPU-Sim PTX: cudaLaunch for 0x0x55c57d402360 (mode=performance simulation) on stream 0
GPGPU-Sim PTX: finding reconvergence points for '_Z8clean_bcPfi'...
GPGPU-Sim PTX: Finding dominators for '_Z8clean_bcPfi'...
GPGPU-Sim PTX: Finding immediate dominators for '_Z8clean_bcPfi'...
GPGPU-Sim PTX: Finding postdominators for '_Z8clean_bcPfi'...
GPGPU-Sim PTX: Finding immediate postdominators for '_Z8clean_bcPfi'...
GPGPU-Sim PTX: pre-decoding instructions for '_Z8clean_bcPfi'...
GPGPU-Sim PTX: reconvergence points for _Z8clean_bcPfi...
GPGPU-Sim PTX:  1 (potential) branch divergence @  PC=0xdd8 (bc.1.sm_75.ptx:677) @%p1 bra BB5_2;
GPGPU-Sim PTX:    immediate post dominator      @  PC=0xe08 (bc.1.sm_75.ptx:686) ret;
GPGPU-Sim PTX: ... end of reconvergence points for _Z8clean_bcPfi
GPGPU-Sim PTX: ... done pre-decoding instructions for '_Z8clean_bcPfi'.
GPGPU-Sim PTX: pushing kernel '_Z8clean_bcPfi' to stream 0, gridDim= (2337,1,1) blockDim = (128,1,1) 
GPGPU-Sim uArch: Shader 0 bind to kernel 1 '_Z8clean_bcPfi'
GPGPU-Sim uArch: CTA/core = 8, limited by: threads
GPGPU-Sim: Reconfigure L1 cache to 64KB
GPGPU-Sim uArch: Shader 1 bind to kernel 1 '_Z8clean_bcPfi'
GPGPU-Sim uArch: Shader 2 bind to kernel 1 '_Z8clean_bcPfi'
GPGPU-Sim uArch: Shader 3 bind to kernel 1 '_Z8clean_bcPfi'
GPGPU-Sim uArch: Shader 4 bind to kernel 1 '_Z8clean_bcPfi'
GPGPU-Sim uArch: Shader 5 bind to kernel 1 '_Z8clean_bcPfi'
GPGPU-Sim uArch: Shader 6 bind to kernel 1 '_Z8clean_bcPfi'
GPGPU-Sim uArch: Shader 7 bind to kernel 1 '_Z8clean_bcPfi'
GPGPU-Sim uArch: Shader 8 bind to kernel 1 '_Z8clean_bcPfi'
GPGPU-Sim uArch: Shader 9 bind to kernel 1 '_Z8clean_bcPfi'
GPGPU-Sim uArch: Shader 10 bind to kernel 1 '_Z8clean_bcPfi'
GPGPU-Sim uArch: Shader 11 bind to kernel 1 '_Z8clean_bcPfi'
GPGPU-Sim uArch: Shader 12 bind to kernel 1 '_Z8clean_bcPfi'
GPGPU-Sim uArch: Shader 13 bind to kernel 1 '_Z8clean_bcPfi'
GPGPU-Sim uArch: Shader 14 bind to kernel 1 '_Z8clean_bcPfi'
GPGPU-Sim uArch: Shader 15 bind to kernel 1 '_Z8clean_bcPfi'
GPGPU-Sim uArch: Shader 16 bind to kernel 1 '_Z8clean_bcPfi'
GPGPU-Sim uArch: Shader 17 bind to kernel 1 '_Z8clean_bcPfi'
GPGPU-Sim uArch: Shader 18 bind to kernel 1 '_Z8clean_bcPfi'
GPGPU-Sim uArch: Shader 19 bind to kernel 1 '_Z8clean_bcPfi'
GPGPU-Sim uArch: Shader 20 bind to kernel 1 '_Z8clean_bcPfi'
GPGPU-Sim uArch: Shader 21 bind to kernel 1 '_Z8clean_bcPfi'
GPGPU-Sim uArch: Shader 22 bind to kernel 1 '_Z8clean_bcPfi'
GPGPU-Sim uArch: Shader 23 bind to kernel 1 '_Z8clean_bcPfi'
GPGPU-Sim uArch: Shader 24 bind to kernel 1 '_Z8clean_bcPfi'
GPGPU-Sim uArch: Shader 25 bind to kernel 1 '_Z8clean_bcPfi'
GPGPU-Sim uArch: Shader 26 bind to kernel 1 '_Z8clean_bcPfi'
GPGPU-Sim uArch: Shader 27 bind to kernel 1 '_Z8clean_bcPfi'
GPGPU-Sim uArch: Shader 28 bind to kernel 1 '_Z8clean_bcPfi'
GPGPU-Sim uArch: Shader 29 bind to kernel 1 '_Z8clean_bcPfi'
Destroy streams for kernel 1: size 0
kernel_name = _Z8clean_bcPfi 
kernel_launch_uid = 1 
gpu_sim_cycle = 8783
gpu_sim_insn = 3888492
gpu_ipc =     442.7294
gpu_tot_sim_cycle = 8783
gpu_tot_sim_insn = 3888492
gpu_tot_ipc =     442.7294
gpu_tot_issued_cta = 2337
gpu_occupancy = 92.5437% 
gpu_tot_occupancy = 92.5437% 
max_total_param_size = 0
gpu_stall_dramfull = 0
gpu_stall_icnt2sh    = 0
partiton_level_parallism =       4.2564
partiton_level_parallism_total  =       4.2564
partiton_level_parallism_util =      12.8159
partiton_level_parallism_util_total  =      12.8159
L2_BW  =     185.9197 GB/Sec
L2_BW_total  =     185.9197 GB/Sec
gpu_total_sim_rate=277749

========= Core cache stats =========
L1I_cache:
	L1I_total_cache_accesses = 0
	L1I_total_cache_misses = 0
	L1I_total_cache_pending_hits = 0
	L1I_total_cache_reservation_fails = 0
L1D_cache:
	L1D_cache_core[0]: Access = 1248, Miss = 1248, Miss_rate = 1.000, Pending_hits = 0, Reservation_fails = 294
	L1D_cache_core[1]: Access = 1248, Miss = 1248, Miss_rate = 1.000, Pending_hits = 0, Reservation_fails = 294
	L1D_cache_core[2]: Access = 1248, Miss = 1248, Miss_rate = 1.000, Pending_hits = 0, Reservation_fails = 294
	L1D_cache_core[3]: Access = 1248, Miss = 1248, Miss_rate = 1.000, Pending_hits = 0, Reservation_fails = 294
	L1D_cache_core[4]: Access = 1248, Miss = 1248, Miss_rate = 1.000, Pending_hits = 0, Reservation_fails = 294
	L1D_cache_core[5]: Access = 1248, Miss = 1248, Miss_rate = 1.000, Pending_hits = 0, Reservation_fails = 294
	L1D_cache_core[6]: Access = 1264, Miss = 1264, Miss_rate = 1.000, Pending_hits = 0, Reservation_fails = 324
	L1D_cache_core[7]: Access = 1264, Miss = 1264, Miss_rate = 1.000, Pending_hits = 0, Reservation_fails = 324
	L1D_cache_core[8]: Access = 1256, Miss = 1256, Miss_rate = 1.000, Pending_hits = 0, Reservation_fails = 324
	L1D_cache_core[9]: Access = 1248, Miss = 1248, Miss_rate = 1.000, Pending_hits = 0, Reservation_fails = 324
	L1D_cache_core[10]: Access = 1248, Miss = 1248, Miss_rate = 1.000, Pending_hits = 0, Reservation_fails = 324
	L1D_cache_core[11]: Access = 1248, Miss = 1248, Miss_rate = 1.000, Pending_hits = 0, Reservation_fails = 324
	L1D_cache_core[12]: Access = 1232, Miss = 1232, Miss_rate = 1.000, Pending_hits = 0, Reservation_fails = 410
	L1D_cache_core[13]: Access = 1232, Miss = 1232, Miss_rate = 1.000, Pending_hits = 0, Reservation_fails = 410
	L1D_cache_core[14]: Access = 1232, Miss = 1232, Miss_rate = 1.000, Pending_hits = 0, Reservation_fails = 410
	L1D_cache_core[15]: Access = 1232, Miss = 1232, Miss_rate = 1.000, Pending_hits = 0, Reservation_fails = 410
	L1D_cache_core[16]: Access = 1232, Miss = 1232, Miss_rate = 1.000, Pending_hits = 0, Reservation_fails = 410
	L1D_cache_core[17]: Access = 1232, Miss = 1232, Miss_rate = 1.000, Pending_hits = 0, Reservation_fails = 410
	L1D_cache_core[18]: Access = 1248, Miss = 1248, Miss_rate = 1.000, Pending_hits = 0, Reservation_fails = 319
	L1D_cache_core[19]: Access = 1248, Miss = 1248, Miss_rate = 1.000, Pending_hits = 0, Reservation_fails = 319
	L1D_cache_core[20]: Access = 1248, Miss = 1248, Miss_rate = 1.000, Pending_hits = 0, Reservation_fails = 319
	L1D_cache_core[21]: Access = 1248, Miss = 1248, Miss_rate = 1.000, Pending_hits = 0, Reservation_fails = 319
	L1D_cache_core[22]: Access = 1248, Miss = 1248, Miss_rate = 1.000, Pending_hits = 0, Reservation_fails = 319
	L1D_cache_core[23]: Access = 1248, Miss = 1248, Miss_rate = 1.000, Pending_hits = 0, Reservation_fails = 319
	L1D_cache_core[24]: Access = 1248, Miss = 1248, Miss_rate = 1.000, Pending_hits = 0, Reservation_fails = 288
	L1D_cache_core[25]: Access = 1248, Miss = 1248, Miss_rate = 1.000, Pending_hits = 0, Reservation_fails = 288
	L1D_cache_core[26]: Access = 1248, Miss = 1248, Miss_rate = 1.000, Pending_hits = 0, Reservation_fails = 288
	L1D_cache_core[27]: Access = 1248, Miss = 1248, Miss_rate = 1.000, Pending_hits = 0, Reservation_fails = 288
	L1D_cache_core[28]: Access = 1248, Miss = 1248, Miss_rate = 1.000, Pending_hits = 0, Reservation_fails = 288
	L1D_cache_core[29]: Access = 1248, Miss = 1248, Miss_rate = 1.000, Pending_hits = 0, Reservation_fails = 288
	L1D_total_cache_accesses = 37384
	L1D_total_cache_misses = 37384
	L1D_total_cache_miss_rate = 1.0000
	L1D_total_cache_pending_hits = 0
	L1D_total_cache_reservation_fails = 9810
	L1D_cache_data_port_util = 0.000
	L1D_cache_fill_port_util = 0.000
L1C_cache:
	L1C_total_cache_accesses = 0
	L1C_total_cache_misses = 0
	L1C_total_cache_pending_hits = 0
	L1C_total_cache_reservation_fails = 0
L1T_cache:
	L1T_total_cache_accesses = 0
	L1T_total_cache_misses = 0
	L1T_total_cache_pending_hits = 0
	L1T_total_cache_reservation_fails = 0

Total_core_cache_stats:
	Total_core_cache_stats_breakdown[GLOBAL_ACC_R][HIT] = 0
	Total_core_cache_stats_breakdown[GLOBAL_ACC_R][HIT_RESERVED] = 0
	Total_core_cache_stats_breakdown[GLOBAL_ACC_R][MISS] = 0
	Total_core_cache_stats_breakdown[GLOBAL_ACC_R][RESERVATION_FAIL] = 0
	Total_core_cache_stats_breakdown[GLOBAL_ACC_R][SECTOR_MISS] = 0
	Total_core_cache_stats_breakdown[GLOBAL_ACC_R][MSHR_HIT] = 0
	Total_core_cache_stats_breakdown[LOCAL_ACC_R][HIT] = 0
	Total_core_cache_stats_breakdown[LOCAL_ACC_R][HIT_RESERVED] = 0
	Total_core_cache_stats_breakdown[LOCAL_ACC_R][MISS] = 0
	Total_core_cache_stats_breakdown[LOCAL_ACC_R][RESERVATION_FAIL] = 0
	Total_core_cache_stats_breakdown[LOCAL_ACC_R][SECTOR_MISS] = 0
	Total_core_cache_stats_breakdown[LOCAL_ACC_R][MSHR_HIT] = 0
	Total_core_cache_stats_breakdown[CONST_ACC_R][HIT] = 0
	Total_core_cache_stats_breakdown[CONST_ACC_R][HIT_RESERVED] = 0
	Total_core_cache_stats_breakdown[CONST_ACC_R][MISS] = 0
	Total_core_cache_stats_breakdown[CONST_ACC_R][RESERVATION_FAIL] = 0
	Total_core_cache_stats_breakdown[CONST_ACC_R][SECTOR_MISS] = 0
	Total_core_cache_stats_breakdown[CONST_ACC_R][MSHR_HIT] = 0
	Total_core_cache_stats_breakdown[TEXTURE_ACC_R][HIT] = 0
	Total_core_cache_stats_breakdown[TEXTURE_ACC_R][HIT_RESERVED] = 0
	Total_core_cache_stats_breakdown[TEXTURE_ACC_R][MISS] = 0
	Total_core_cache_stats_breakdown[TEXTURE_ACC_R][RESERVATION_FAIL] = 0
	Total_core_cache_stats_breakdown[TEXTURE_ACC_R][SECTOR_MISS] = 0
	Total_core_cache_stats_breakdown[TEXTURE_ACC_R][MSHR_HIT] = 0
	Total_core_cache_stats_breakdown[GLOBAL_ACC_W][HIT] = 0
	Total_core_cache_stats_breakdown[GLOBAL_ACC_W][HIT_RESERVED] = 0
	Total_core_cache_stats_breakdown[GLOBAL_ACC_W][MISS] = 9346
	Total_core_cache_stats_breakdown[GLOBAL_ACC_W][RESERVATION_FAIL] = 9810
	Total_core_cache_stats_breakdown[GLOBAL_ACC_W][SECTOR_MISS] = 28038
	Total_core_cache_stats_breakdown[GLOBAL_ACC_W][MSHR_HIT] = 0
	Total_core_cache_stats_breakdown[LOCAL_ACC_W][HIT] = 0
	Total_core_cache_stats_breakdown[LOCAL_ACC_W][HIT_RESERVED] = 0
	Total_core_cache_stats_breakdown[LOCAL_ACC_W][MISS] = 0
	Total_core_cache_stats_breakdown[LOCAL_ACC_W][RESERVATION_FAIL] = 0
	Total_core_cache_stats_breakdown[LOCAL_ACC_W][SECTOR_MISS] = 0
	Total_core_cache_stats_breakdown[LOCAL_ACC_W][MSHR_HIT] = 0
	Total_core_cache_stats_breakdown[L1_WRBK_ACC][HIT] = 0
	Total_core_cache_stats_breakdown[L1_WRBK_ACC][HIT_RESERVED] = 0
	Total_core_cache_stats_breakdown[L1_WRBK_ACC][MISS] = 0
	Total_core_cache_stats_breakdown[L1_WRBK_ACC][RESERVATION_FAIL] = 0
	Total_core_cache_stats_breakdown[L1_WRBK_ACC][SECTOR_MISS] = 0
	Total_core_cache_stats_breakdown[L1_WRBK_ACC][MSHR_HIT] = 0
	Total_core_cache_stats_breakdown[L2_WRBK_ACC][HIT] = 0
	Total_core_cache_stats_breakdown[L2_WRBK_ACC][HIT_RESERVED] = 0
	Total_core_cache_stats_breakdown[L2_WRBK_ACC][MISS] = 0
	Total_core_cache_stats_breakdown[L2_WRBK_ACC][RESERVATION_FAIL] = 0
	Total_core_cache_stats_breakdown[L2_WRBK_ACC][SECTOR_MISS] = 0
	Total_core_cache_stats_breakdown[L2_WRBK_ACC][MSHR_HIT] = 0
	Total_core_cache_stats_breakdown[INST_ACC_R][HIT] = 0
	Total_core_cache_stats_breakdown[INST_ACC_R][HIT_RESERVED] = 0
	Total_core_cache_stats_breakdown[INST_ACC_R][MISS] = 0
	Total_core_cache_stats_breakdown[INST_ACC_R][RESERVATION_FAIL] = 0
	Total_core_cache_stats_breakdown[INST_ACC_R][SECTOR_MISS] = 0
	Total_core_cache_stats_breakdown[INST_ACC_R][MSHR_HIT] = 0
	Total_core_cache_stats_breakdown[L1_WR_ALLOC_R][HIT] = 0
	Total_core_cache_stats_breakdown[L1_WR_ALLOC_R][HIT_RESERVED] = 0
	Total_core_cache_stats_breakdown[L1_WR_ALLOC_R][MISS] = 0
	Total_core_cache_stats_breakdown[L1_WR_ALLOC_R][RESERVATION_FAIL] = 0
	Total_core_cache_stats_breakdown[L1_WR_ALLOC_R][SECTOR_MISS] = 0
	Total_core_cache_stats_breakdown[L1_WR_ALLOC_R][MSHR_HIT] = 0
	Total_core_cache_stats_breakdown[L2_WR_ALLOC_R][HIT] = 0
	Total_core_cache_stats_breakdown[L2_WR_ALLOC_R][HIT_RESERVED] = 0
	Total_core_cache_stats_breakdown[L2_WR_ALLOC_R][MISS] = 0
	Total_core_cache_stats_breakdown[L2_WR_ALLOC_R][RESERVATION_FAIL] = 0
	Total_core_cache_stats_breakdown[L2_WR_ALLOC_R][SECTOR_MISS] = 0
	Total_core_cache_stats_breakdown[L2_WR_ALLOC_R][MSHR_HIT] = 0
	Total_core_cache_stats_breakdown[GLOBAL_ACC_W][TOTAL_ACCESS] = 37384

Total_core_cache_fail_stats:
	Total_core_cache_fail_stats_breakdown[GLOBAL_ACC_W][MISS_QUEUE_FULL] = 9810
ctas_completed 2337, Shader 0 warp_id issue ditsribution:
warp_id:
0, 1, 2, 3, 4, 5, 6, 7, 8, 9, 10, 11, 12, 13, 14, 15, 16, 17, 18, 19, 20, 21, 22, 23, 24, 25, 26, 27, 28, 29, 30, 31, 
distro:
140, 140, 140, 140, 140, 140, 140, 140, 140, 140, 140, 140, 140, 140, 140, 140, 126, 126, 126, 126, 140, 140, 140, 140, 126, 126, 126, 126, 140, 140, 140, 140, 
gpgpu_n_tot_thrd_icount = 4187584
gpgpu_n_tot_w_icount = 130862
gpgpu_n_stall_shd_mem = 0
gpgpu_n_mem_read_local = 0
gpgpu_n_mem_write_local = 0
gpgpu_n_mem_read_global = 0
gpgpu_n_mem_write_global = 37384
gpgpu_n_mem_texture = 0
gpgpu_n_mem_const = 0
gpgpu_n_load_insn  = 0
gpgpu_n_store_insn = 299067
gpgpu_n_shmem_insn = 0
gpgpu_n_sstarr_insn = 0
gpgpu_n_tex_insn = 0
gpgpu_n_const_mem_insn = 0
gpgpu_n_param_mem_insn = 598272
gpgpu_n_shmem_bkconflict = 0
gpgpu_n_cache_bkconflict = 0
gpgpu_n_intrawarp_mshr_merge = 0
gpgpu_n_cmem_portconflict = 0
gpgpu_stall_shd_mem[c_mem][resource_stall] = 0
gpgpu_stall_shd_mem[s_mem][bk_conf] = 0
gpgpu_stall_shd_mem[gl_mem][resource_stall] = 0
gpgpu_stall_shd_mem[gl_mem][coal_stall] = 0
gpgpu_stall_shd_mem[gl_mem][data_port_stall] = 0
gpu_reg_bank_conflict_stalls = 0
Warp Occupancy Distribution:
Stall:17472	W0_Idle:159128	W0_Scoreboard:143094	W1:0	W2:0	W3:0	W4:0	W5:0	W6:0	W7:0	W8:0	W9:0	W10:0	W11:0	W12:0	W13:0	W14:0	W15:0	W16:0	W17:0	W18:0	W19:0	W20:0	W21:0	W22:0	W23:0	W24:0	W25:0	W26:0	W27:5	W28:0	W29:0	W30:0	W31:0	W32:130857
single_issue_nums: WS0:32718	WS1:32718	WS2:32713	WS3:32713	
dual_issue_nums: WS0:0	WS1:0	WS2:0	WS3:0	
traffic_breakdown_coretomem[GLOBAL_ACC_W] = 1495360 {40:37384,}
traffic_breakdown_memtocore[GLOBAL_ACC_W] = 299072 {8:37384,}
maxmflatency = 518 
max_icnt2mem_latency = 319 
maxmrqlatency = 0 
max_icnt2sh_latency = 8 
averagemflatency = 273 
avg_icnt2mem_latency = 79 
avg_icnt2sh_latency = 2 
mrq_lat_table:0 	0 	0 	0 	0 	0 	0 	0 	0 	0 	0 	0 	0 	0 	0 	0 	0 	0 	0 	0 	0 	0 	0 	0 	0 	0 	0 	0 	0 	0 	0 	0 	
dq_lat_table:0 	0 	0 	0 	0 	0 	0 	0 	0 	0 	0 	0 	0 	0 	0 	0 	0 	0 	0 	0 	0 	0 	0 	0 	0 	0 	0 	0 	0 	0 	0 	0 	
mf_lat_table:0 	0 	0 	0 	0 	0 	0 	22866 	14416 	102 	0 	0 	0 	0 	0 	0 	0 	0 	0 	0 	0 	0 	0 	0 	0 	0 	0 	0 	0 	0 	0 	0 	
icnt2mem_lat_table:0 	0 	0 	0 	0 	25390 	7698 	3108 	1188 	0 	0 	0 	0 	0 	0 	0 	0 	0 	0 	0 	0 	0 	0 	0 	
icnt2sh_lat_table:0 	33350 	3980 	54 	0 	0 	0 	0 	0 	0 	0 	0 	0 	0 	0 	0 	0 	0 	0 	0 	0 	0 	0 	0 	
mf_lat_pw_table:0 	0 	0 	0 	0 	0 	0 	2 	5 	0 	0 	0 	0 	0 	0 	0 	0 	0 	0 	0 	0 	0 	0 	0 	0 	0 	0 	0 	0 	0 	0 	0 	
maximum concurrent accesses to same row:
dram[0]:         0         0         0         0         0         0         0         0         0         0         0         0         0         0         0         0 
dram[1]:         0         0         0         0         0         0         0         0         0         0         0         0         0         0         0         0 
dram[2]:         0         0         0         0         0         0         0         0         0         0         0         0         0         0         0         0 
dram[3]:         0         0         0         0         0         0         0         0         0         0         0         0         0         0         0         0 
dram[4]:         0         0         0         0         0         0         0         0         0         0         0         0         0         0         0         0 
dram[5]:         0         0         0         0         0         0         0         0         0         0         0         0         0         0         0         0 
dram[6]:         0         0         0         0         0         0         0         0         0         0         0         0         0         0         0         0 
dram[7]:         0         0         0         0         0         0         0         0         0         0         0         0         0         0         0         0 
dram[8]:         0         0         0         0         0         0         0         0         0         0         0         0         0         0         0         0 
dram[9]:         0         0         0         0         0         0         0         0         0         0         0         0         0         0         0         0 
dram[10]:         0         0         0         0         0         0         0         0         0         0         0         0         0         0         0         0 
dram[11]:         0         0         0         0         0         0         0         0         0         0         0         0         0         0         0         0 
maximum service time to same row:
dram[0]:         0         0         0         0         0         0         0         0         0         0         0         0         0         0         0         0 
dram[1]:         0         0         0         0         0         0         0         0         0         0         0         0         0         0         0         0 
dram[2]:         0         0         0         0         0         0         0         0         0         0         0         0         0         0         0         0 
dram[3]:         0         0         0         0         0         0         0         0         0         0         0         0         0         0         0         0 
dram[4]:         0         0         0         0         0         0         0         0         0         0         0         0         0         0         0         0 
dram[5]:         0         0         0         0         0         0         0         0         0         0         0         0         0         0         0         0 
dram[6]:         0         0         0         0         0         0         0         0         0         0         0         0         0         0         0         0 
dram[7]:         0         0         0         0         0         0         0         0         0         0         0         0         0         0         0         0 
dram[8]:         0         0         0         0         0         0         0         0         0         0         0         0         0         0         0         0 
dram[9]:         0         0         0         0         0         0         0         0         0         0         0         0         0         0         0         0 
dram[10]:         0         0         0         0         0         0         0         0         0         0         0         0         0         0         0         0 
dram[11]:         0         0         0         0         0         0         0         0         0         0         0         0         0         0         0         0 
average row accesses per activate:
dram[0]:      -nan      -nan      -nan      -nan      -nan      -nan      -nan      -nan      -nan      -nan      -nan      -nan      -nan      -nan      -nan      -nan 
dram[1]:      -nan      -nan      -nan      -nan      -nan      -nan      -nan      -nan      -nan      -nan      -nan      -nan      -nan      -nan      -nan      -nan 
dram[2]:      -nan      -nan      -nan      -nan      -nan      -nan      -nan      -nan      -nan      -nan      -nan      -nan      -nan      -nan      -nan      -nan 
dram[3]:      -nan      -nan      -nan      -nan      -nan      -nan      -nan      -nan      -nan      -nan      -nan      -nan      -nan      -nan      -nan      -nan 
dram[4]:      -nan      -nan      -nan      -nan      -nan      -nan      -nan      -nan      -nan      -nan      -nan      -nan      -nan      -nan      -nan      -nan 
dram[5]:      -nan      -nan      -nan      -nan      -nan      -nan      -nan      -nan      -nan      -nan      -nan      -nan      -nan      -nan      -nan      -nan 
dram[6]:      -nan      -nan      -nan      -nan      -nan      -nan      -nan      -nan      -nan      -nan      -nan      -nan      -nan      -nan      -nan      -nan 
dram[7]:      -nan      -nan      -nan      -nan      -nan      -nan      -nan      -nan      -nan      -nan      -nan      -nan      -nan      -nan      -nan      -nan 
dram[8]:      -nan      -nan      -nan      -nan      -nan      -nan      -nan      -nan      -nan      -nan      -nan      -nan      -nan      -nan      -nan      -nan 
dram[9]:      -nan      -nan      -nan      -nan      -nan      -nan      -nan      -nan      -nan      -nan      -nan      -nan      -nan      -nan      -nan      -nan 
dram[10]:      -nan      -nan      -nan      -nan      -nan      -nan      -nan      -nan      -nan      -nan      -nan      -nan      -nan      -nan      -nan      -nan 
dram[11]:      -nan      -nan      -nan      -nan      -nan      -nan      -nan      -nan      -nan      -nan      -nan      -nan      -nan      -nan      -nan      -nan 
average row locality = 0/0 = -nan
number of total memory accesses made:
dram[0]:         0         0         0         0         0         0         0         0         0         0         0         0         0         0         0         0 
dram[1]:         0         0         0         0         0         0         0         0         0         0         0         0         0         0         0         0 
dram[2]:         0         0         0         0         0         0         0         0         0         0         0         0         0         0         0         0 
dram[3]:         0         0         0         0         0         0         0         0         0         0         0         0         0         0         0         0 
dram[4]:         0         0         0         0         0         0         0         0         0         0         0         0         0         0         0         0 
dram[5]:         0         0         0         0         0         0         0         0         0         0         0         0         0         0         0         0 
dram[6]:         0         0         0         0         0         0         0         0         0         0         0         0         0         0         0         0 
dram[7]:         0         0         0         0         0         0         0         0         0         0         0         0         0         0         0         0 
dram[8]:         0         0         0         0         0         0         0         0         0         0         0         0         0         0         0         0 
dram[9]:         0         0         0         0         0         0         0         0         0         0         0         0         0         0         0         0 
dram[10]:         0         0         0         0         0         0         0         0         0         0         0         0         0         0         0         0 
dram[11]:         0         0         0         0         0         0         0         0         0         0         0         0         0         0         0         0 
total accesses: 0
min_bank_accesses = 0!
min_chip_accesses = 0!
number of total read accesses:
dram[0]:         0         0         0         0         0         0         0         0         0         0         0         0         0         0         0         0 
dram[1]:         0         0         0         0         0         0         0         0         0         0         0         0         0         0         0         0 
dram[2]:         0         0         0         0         0         0         0         0         0         0         0         0         0         0         0         0 
dram[3]:         0         0         0         0         0         0         0         0         0         0         0         0         0         0         0         0 
dram[4]:         0         0         0         0         0         0         0         0         0         0         0         0         0         0         0         0 
dram[5]:         0         0         0         0         0         0         0         0         0         0         0         0         0         0         0         0 
dram[6]:         0         0         0         0         0         0         0         0         0         0         0         0         0         0         0         0 
dram[7]:         0         0         0         0         0         0         0         0         0         0         0         0         0         0         0         0 
dram[8]:         0         0         0         0         0         0         0         0         0         0         0         0         0         0         0         0 
dram[9]:         0         0         0         0         0         0         0         0         0         0         0         0         0         0         0         0 
dram[10]:         0         0         0         0         0         0         0         0         0         0         0         0         0         0         0         0 
dram[11]:         0         0         0         0         0         0         0         0         0         0         0         0         0         0         0         0 
total dram reads = 0
min_bank_accesses = 0!
min_chip_accesses = 0!
number of total write accesses:
dram[0]:         0         0         0         0         0         0         0         0         0         0         0         0         0         0         0         0 
dram[1]:         0         0         0         0         0         0         0         0         0         0         0         0         0         0         0         0 
dram[2]:         0         0         0         0         0         0         0         0         0         0         0         0         0         0         0         0 
dram[3]:         0         0         0         0         0         0         0         0         0         0         0         0         0         0         0         0 
dram[4]:         0         0         0         0         0         0         0         0         0         0         0         0         0         0         0         0 
dram[5]:         0         0         0         0         0         0         0         0         0         0         0         0         0         0         0         0 
dram[6]:         0         0         0         0         0         0         0         0         0         0         0         0         0         0         0         0 
dram[7]:         0         0         0         0         0         0         0         0         0         0         0         0         0         0         0         0 
dram[8]:         0         0         0         0         0         0         0         0         0         0         0         0         0         0         0         0 
dram[9]:         0         0         0         0         0         0         0         0         0         0         0         0         0         0         0         0 
dram[10]:         0         0         0         0         0         0         0         0         0         0         0         0         0         0         0         0 
dram[11]:         0         0         0         0         0         0         0         0         0         0         0         0         0         0         0         0 
total dram writes = 0
min_bank_accesses = 0!
min_chip_accesses = 0!
average mf latency per bank:
dram[0]:     none      none      none      none      none      none      none      none      none      none      none      none      none      none      none      none  
dram[1]:     none      none      none      none      none      none      none      none      none      none      none      none      none      none      none      none  
dram[2]:     none      none      none      none      none      none      none      none      none      none      none      none      none      none      none      none  
dram[3]:     none      none      none      none      none      none      none      none      none      none      none      none      none      none      none      none  
dram[4]:     none      none      none      none      none      none      none      none      none      none      none      none      none      none      none      none  
dram[5]:     none      none      none      none      none      none      none      none      none      none      none      none      none      none      none      none  
dram[6]:     none      none      none      none      none      none      none      none      none      none      none      none      none      none      none      none  
dram[7]:     none      none      none      none      none      none      none      none      none      none      none      none      none      none      none      none  
dram[8]:     none      none      none      none      none      none      none      none      none      none      none      none      none      none      none      none  
dram[9]:     none      none      none      none      none      none      none      none      none      none      none      none      none      none      none      none  
dram[10]:     none      none      none      none      none      none      none      none      none      none      none      none      none      none      none      none  
dram[11]:     none      none      none      none      none      none      none      none      none      none      none      none      none      none      none      none  
maximum mf latency per bank:
dram[0]:        508       500       512       510       518       515       379       378       387       387       301       309       325       326       333       333
dram[1]:        506       329       513       510       516       509       380       378       388       386       309       309       324       325       333       333
dram[2]:        508       500       512       510       518       515       379       378       387       387       301       309       325       326       333       333
dram[3]:        506       329       513       510       516       509       380       378       388       386       309       309       324       325       333       333
dram[4]:        508       500       512       510       518       515       379       378       387       387       301       309       325       326       333       333
dram[5]:        506       329       513       510       516       509       380       378       388       386       309       309       324       325       333       333
dram[6]:        508       500       512       510       518       515       379       378       387       387       301       309       325       326       333       333
dram[7]:        506       329       513       510       516       509       380       378       388       386       309       309       324       325       333       333
dram[8]:        508       500       512       510       518       515       379       378       387       387       301       309       325       326       333       333
dram[9]:        506       329       513       510       516       509       380       378       388       386       309       309       324       325       333       333
dram[10]:        508       500       512       510       518       515       379       378       387       387       301       309       325       326       333       333
dram[11]:        506       329       513       510       516       509       380       378       388       386       309       309       324       325       333       333
Memory Partition 0: 
Cache L2_bank_000:
MSHR contents

Cache L2_bank_001:
MSHR contents

In Dram Latency Queue (total = 0): 
DRAM[0]: 16 bks, busW=2 BL=16 CL=24, tRRD=12 tCCD=4, tRCD=24 tRAS=55 tRP=24 tRC=78
n_cmd=22522 n_nop=22522 n_act=0 n_pre=0 n_ref_event=0 n_req=0 n_rd=0 n_rd_L2_A=0 n_write=0 n_wr_bk=0 bw_util=0
n_activity=0 dram_eff=-nan
bk0: 0a 22522i bk1: 0a 22522i bk2: 0a 22522i bk3: 0a 22522i bk4: 0a 22522i bk5: 0a 22522i bk6: 0a 22522i bk7: 0a 22522i bk8: 0a 22522i bk9: 0a 22522i bk10: 0a 22522i bk11: 0a 22522i bk12: 0a 22522i bk13: 0a 22522i bk14: 0a 22522i bk15: 0a 22522i 

------------------------------------------------------------------------

Row_Buffer_Locality = -nan
Row_Buffer_Locality_read = -nan
Row_Buffer_Locality_write = -nan
Bank_Level_Parallism = -nan
Bank_Level_Parallism_Col = -nan
Bank_Level_Parallism_Ready = -nan
write_to_read_ratio_blp_rw_average = -nan
GrpLevelPara = -nan 

BW Util details:
bwutil = 0.000000 
total_CMD = 22522 
util_bw = 0 
Wasted_Col = 0 
Wasted_Row = 0 
Idle = 22522 

BW Util Bottlenecks: 
RCDc_limit = 0 
RCDWRc_limit = 0 
WTRc_limit = 0 
RTWc_limit = 0 
CCDLc_limit = 0 
rwq = 0 
CCDLc_limit_alone = 0 
WTRc_limit_alone = 0 
RTWc_limit_alone = 0 

Commands details: 
total_CMD = 22522 
n_nop = 22522 
Read = 0 
Write = 0 
L2_Alloc = 0 
L2_WB = 0 
n_act = 0 
n_pre = 0 
n_ref = 0 
n_req = 0 
total_req = 0 

Dual Bus Interface Util: 
issued_total_row = 0 
issued_total_col = 0 
Row_Bus_Util =  0.000000 
CoL_Bus_Util = 0.000000 
Either_Row_CoL_Bus_Util = 0.000000 
Issued_on_Two_Bus_Simul_Util = 0.000000 
issued_two_Eff = -nan 
queue_avg = 0.000000 


dram_util_bins: 0 0 0 0 0 0 0 0 0 0
dram_eff_bins: 0 0 0 0 0 0 0 0 0 0
mrqq: max=0 avg=0
Memory Partition 1: 
Cache L2_bank_002:
MSHR contents

Cache L2_bank_003:
MSHR contents

In Dram Latency Queue (total = 0): 
DRAM[1]: 16 bks, busW=2 BL=16 CL=24, tRRD=12 tCCD=4, tRCD=24 tRAS=55 tRP=24 tRC=78
n_cmd=22522 n_nop=22522 n_act=0 n_pre=0 n_ref_event=0 n_req=0 n_rd=0 n_rd_L2_A=0 n_write=0 n_wr_bk=0 bw_util=0
n_activity=0 dram_eff=-nan
bk0: 0a 22522i bk1: 0a 22522i bk2: 0a 22522i bk3: 0a 22522i bk4: 0a 22522i bk5: 0a 22522i bk6: 0a 22522i bk7: 0a 22522i bk8: 0a 22522i bk9: 0a 22522i bk10: 0a 22522i bk11: 0a 22522i bk12: 0a 22522i bk13: 0a 22522i bk14: 0a 22522i bk15: 0a 22522i 

------------------------------------------------------------------------

Row_Buffer_Locality = -nan
Row_Buffer_Locality_read = -nan
Row_Buffer_Locality_write = -nan
Bank_Level_Parallism = -nan
Bank_Level_Parallism_Col = -nan
Bank_Level_Parallism_Ready = -nan
write_to_read_ratio_blp_rw_average = -nan
GrpLevelPara = -nan 

BW Util details:
bwutil = 0.000000 
total_CMD = 22522 
util_bw = 0 
Wasted_Col = 0 
Wasted_Row = 0 
Idle = 22522 

BW Util Bottlenecks: 
RCDc_limit = 0 
RCDWRc_limit = 0 
WTRc_limit = 0 
RTWc_limit = 0 
CCDLc_limit = 0 
rwq = 0 
CCDLc_limit_alone = 0 
WTRc_limit_alone = 0 
RTWc_limit_alone = 0 

Commands details: 
total_CMD = 22522 
n_nop = 22522 
Read = 0 
Write = 0 
L2_Alloc = 0 
L2_WB = 0 
n_act = 0 
n_pre = 0 
n_ref = 0 
n_req = 0 
total_req = 0 

Dual Bus Interface Util: 
issued_total_row = 0 
issued_total_col = 0 
Row_Bus_Util =  0.000000 
CoL_Bus_Util = 0.000000 
Either_Row_CoL_Bus_Util = 0.000000 
Issued_on_Two_Bus_Simul_Util = 0.000000 
issued_two_Eff = -nan 
queue_avg = 0.000000 


dram_util_bins: 0 0 0 0 0 0 0 0 0 0
dram_eff_bins: 0 0 0 0 0 0 0 0 0 0
mrqq: max=0 avg=0
Memory Partition 2: 
Cache L2_bank_004:
MSHR contents

Cache L2_bank_005:
MSHR contents

In Dram Latency Queue (total = 0): 
DRAM[2]: 16 bks, busW=2 BL=16 CL=24, tRRD=12 tCCD=4, tRCD=24 tRAS=55 tRP=24 tRC=78
n_cmd=22522 n_nop=22522 n_act=0 n_pre=0 n_ref_event=0 n_req=0 n_rd=0 n_rd_L2_A=0 n_write=0 n_wr_bk=0 bw_util=0
n_activity=0 dram_eff=-nan
bk0: 0a 22522i bk1: 0a 22522i bk2: 0a 22522i bk3: 0a 22522i bk4: 0a 22522i bk5: 0a 22522i bk6: 0a 22522i bk7: 0a 22522i bk8: 0a 22522i bk9: 0a 22522i bk10: 0a 22522i bk11: 0a 22522i bk12: 0a 22522i bk13: 0a 22522i bk14: 0a 22522i bk15: 0a 22522i 

------------------------------------------------------------------------

Row_Buffer_Locality = -nan
Row_Buffer_Locality_read = -nan
Row_Buffer_Locality_write = -nan
Bank_Level_Parallism = -nan
Bank_Level_Parallism_Col = -nan
Bank_Level_Parallism_Ready = -nan
write_to_read_ratio_blp_rw_average = -nan
GrpLevelPara = -nan 

BW Util details:
bwutil = 0.000000 
total_CMD = 22522 
util_bw = 0 
Wasted_Col = 0 
Wasted_Row = 0 
Idle = 22522 

BW Util Bottlenecks: 
RCDc_limit = 0 
RCDWRc_limit = 0 
WTRc_limit = 0 
RTWc_limit = 0 
CCDLc_limit = 0 
rwq = 0 
CCDLc_limit_alone = 0 
WTRc_limit_alone = 0 
RTWc_limit_alone = 0 

Commands details: 
total_CMD = 22522 
n_nop = 22522 
Read = 0 
Write = 0 
L2_Alloc = 0 
L2_WB = 0 
n_act = 0 
n_pre = 0 
n_ref = 0 
n_req = 0 
total_req = 0 

Dual Bus Interface Util: 
issued_total_row = 0 
issued_total_col = 0 
Row_Bus_Util =  0.000000 
CoL_Bus_Util = 0.000000 
Either_Row_CoL_Bus_Util = 0.000000 
Issued_on_Two_Bus_Simul_Util = 0.000000 
issued_two_Eff = -nan 
queue_avg = 0.000000 


dram_util_bins: 0 0 0 0 0 0 0 0 0 0
dram_eff_bins: 0 0 0 0 0 0 0 0 0 0
mrqq: max=0 avg=0
Memory Partition 3: 
Cache L2_bank_006:
MSHR contents

Cache L2_bank_007:
MSHR contents

In Dram Latency Queue (total = 0): 
DRAM[3]: 16 bks, busW=2 BL=16 CL=24, tRRD=12 tCCD=4, tRCD=24 tRAS=55 tRP=24 tRC=78
n_cmd=22522 n_nop=22522 n_act=0 n_pre=0 n_ref_event=0 n_req=0 n_rd=0 n_rd_L2_A=0 n_write=0 n_wr_bk=0 bw_util=0
n_activity=0 dram_eff=-nan
bk0: 0a 22522i bk1: 0a 22522i bk2: 0a 22522i bk3: 0a 22522i bk4: 0a 22522i bk5: 0a 22522i bk6: 0a 22522i bk7: 0a 22522i bk8: 0a 22522i bk9: 0a 22522i bk10: 0a 22522i bk11: 0a 22522i bk12: 0a 22522i bk13: 0a 22522i bk14: 0a 22522i bk15: 0a 22522i 

------------------------------------------------------------------------

Row_Buffer_Locality = -nan
Row_Buffer_Locality_read = -nan
Row_Buffer_Locality_write = -nan
Bank_Level_Parallism = -nan
Bank_Level_Parallism_Col = -nan
Bank_Level_Parallism_Ready = -nan
write_to_read_ratio_blp_rw_average = -nan
GrpLevelPara = -nan 

BW Util details:
bwutil = 0.000000 
total_CMD = 22522 
util_bw = 0 
Wasted_Col = 0 
Wasted_Row = 0 
Idle = 22522 

BW Util Bottlenecks: 
RCDc_limit = 0 
RCDWRc_limit = 0 
WTRc_limit = 0 
RTWc_limit = 0 
CCDLc_limit = 0 
rwq = 0 
CCDLc_limit_alone = 0 
WTRc_limit_alone = 0 
RTWc_limit_alone = 0 

Commands details: 
total_CMD = 22522 
n_nop = 22522 
Read = 0 
Write = 0 
L2_Alloc = 0 
L2_WB = 0 
n_act = 0 
n_pre = 0 
n_ref = 0 
n_req = 0 
total_req = 0 

Dual Bus Interface Util: 
issued_total_row = 0 
issued_total_col = 0 
Row_Bus_Util =  0.000000 
CoL_Bus_Util = 0.000000 
Either_Row_CoL_Bus_Util = 0.000000 
Issued_on_Two_Bus_Simul_Util = 0.000000 
issued_two_Eff = -nan 
queue_avg = 0.000000 


dram_util_bins: 0 0 0 0 0 0 0 0 0 0
dram_eff_bins: 0 0 0 0 0 0 0 0 0 0
mrqq: max=0 avg=0
Memory Partition 4: 
Cache L2_bank_008:
MSHR contents

Cache L2_bank_009:
MSHR contents

In Dram Latency Queue (total = 0): 
DRAM[4]: 16 bks, busW=2 BL=16 CL=24, tRRD=12 tCCD=4, tRCD=24 tRAS=55 tRP=24 tRC=78
n_cmd=22522 n_nop=22522 n_act=0 n_pre=0 n_ref_event=0 n_req=0 n_rd=0 n_rd_L2_A=0 n_write=0 n_wr_bk=0 bw_util=0
n_activity=0 dram_eff=-nan
bk0: 0a 22522i bk1: 0a 22522i bk2: 0a 22522i bk3: 0a 22522i bk4: 0a 22522i bk5: 0a 22522i bk6: 0a 22522i bk7: 0a 22522i bk8: 0a 22522i bk9: 0a 22522i bk10: 0a 22522i bk11: 0a 22522i bk12: 0a 22522i bk13: 0a 22522i bk14: 0a 22522i bk15: 0a 22522i 

------------------------------------------------------------------------

Row_Buffer_Locality = -nan
Row_Buffer_Locality_read = -nan
Row_Buffer_Locality_write = -nan
Bank_Level_Parallism = -nan
Bank_Level_Parallism_Col = -nan
Bank_Level_Parallism_Ready = -nan
write_to_read_ratio_blp_rw_average = -nan
GrpLevelPara = -nan 

BW Util details:
bwutil = 0.000000 
total_CMD = 22522 
util_bw = 0 
Wasted_Col = 0 
Wasted_Row = 0 
Idle = 22522 

BW Util Bottlenecks: 
RCDc_limit = 0 
RCDWRc_limit = 0 
WTRc_limit = 0 
RTWc_limit = 0 
CCDLc_limit = 0 
rwq = 0 
CCDLc_limit_alone = 0 
WTRc_limit_alone = 0 
RTWc_limit_alone = 0 

Commands details: 
total_CMD = 22522 
n_nop = 22522 
Read = 0 
Write = 0 
L2_Alloc = 0 
L2_WB = 0 
n_act = 0 
n_pre = 0 
n_ref = 0 
n_req = 0 
total_req = 0 

Dual Bus Interface Util: 
issued_total_row = 0 
issued_total_col = 0 
Row_Bus_Util =  0.000000 
CoL_Bus_Util = 0.000000 
Either_Row_CoL_Bus_Util = 0.000000 
Issued_on_Two_Bus_Simul_Util = 0.000000 
issued_two_Eff = -nan 
queue_avg = 0.000000 


dram_util_bins: 0 0 0 0 0 0 0 0 0 0
dram_eff_bins: 0 0 0 0 0 0 0 0 0 0
mrqq: max=0 avg=0
Memory Partition 5: 
Cache L2_bank_010:
MSHR contents

Cache L2_bank_011:
MSHR contents

In Dram Latency Queue (total = 0): 
DRAM[5]: 16 bks, busW=2 BL=16 CL=24, tRRD=12 tCCD=4, tRCD=24 tRAS=55 tRP=24 tRC=78
n_cmd=22522 n_nop=22522 n_act=0 n_pre=0 n_ref_event=0 n_req=0 n_rd=0 n_rd_L2_A=0 n_write=0 n_wr_bk=0 bw_util=0
n_activity=0 dram_eff=-nan
bk0: 0a 22522i bk1: 0a 22522i bk2: 0a 22522i bk3: 0a 22522i bk4: 0a 22522i bk5: 0a 22522i bk6: 0a 22522i bk7: 0a 22522i bk8: 0a 22522i bk9: 0a 22522i bk10: 0a 22522i bk11: 0a 22522i bk12: 0a 22522i bk13: 0a 22522i bk14: 0a 22522i bk15: 0a 22522i 

------------------------------------------------------------------------

Row_Buffer_Locality = -nan
Row_Buffer_Locality_read = -nan
Row_Buffer_Locality_write = -nan
Bank_Level_Parallism = -nan
Bank_Level_Parallism_Col = -nan
Bank_Level_Parallism_Ready = -nan
write_to_read_ratio_blp_rw_average = -nan
GrpLevelPara = -nan 

BW Util details:
bwutil = 0.000000 
total_CMD = 22522 
util_bw = 0 
Wasted_Col = 0 
Wasted_Row = 0 
Idle = 22522 

BW Util Bottlenecks: 
RCDc_limit = 0 
RCDWRc_limit = 0 
WTRc_limit = 0 
RTWc_limit = 0 
CCDLc_limit = 0 
rwq = 0 
CCDLc_limit_alone = 0 
WTRc_limit_alone = 0 
RTWc_limit_alone = 0 

Commands details: 
total_CMD = 22522 
n_nop = 22522 
Read = 0 
Write = 0 
L2_Alloc = 0 
L2_WB = 0 
n_act = 0 
n_pre = 0 
n_ref = 0 
n_req = 0 
total_req = 0 

Dual Bus Interface Util: 
issued_total_row = 0 
issued_total_col = 0 
Row_Bus_Util =  0.000000 
CoL_Bus_Util = 0.000000 
Either_Row_CoL_Bus_Util = 0.000000 
Issued_on_Two_Bus_Simul_Util = 0.000000 
issued_two_Eff = -nan 
queue_avg = 0.000000 


dram_util_bins: 0 0 0 0 0 0 0 0 0 0
dram_eff_bins: 0 0 0 0 0 0 0 0 0 0
mrqq: max=0 avg=0
Memory Partition 6: 
Cache L2_bank_012:
MSHR contents

Cache L2_bank_013:
MSHR contents

In Dram Latency Queue (total = 0): 
DRAM[6]: 16 bks, busW=2 BL=16 CL=24, tRRD=12 tCCD=4, tRCD=24 tRAS=55 tRP=24 tRC=78
n_cmd=22522 n_nop=22522 n_act=0 n_pre=0 n_ref_event=0 n_req=0 n_rd=0 n_rd_L2_A=0 n_write=0 n_wr_bk=0 bw_util=0
n_activity=0 dram_eff=-nan
bk0: 0a 22522i bk1: 0a 22522i bk2: 0a 22522i bk3: 0a 22522i bk4: 0a 22522i bk5: 0a 22522i bk6: 0a 22522i bk7: 0a 22522i bk8: 0a 22522i bk9: 0a 22522i bk10: 0a 22522i bk11: 0a 22522i bk12: 0a 22522i bk13: 0a 22522i bk14: 0a 22522i bk15: 0a 22522i 

------------------------------------------------------------------------

Row_Buffer_Locality = -nan
Row_Buffer_Locality_read = -nan
Row_Buffer_Locality_write = -nan
Bank_Level_Parallism = -nan
Bank_Level_Parallism_Col = -nan
Bank_Level_Parallism_Ready = -nan
write_to_read_ratio_blp_rw_average = -nan
GrpLevelPara = -nan 

BW Util details:
bwutil = 0.000000 
total_CMD = 22522 
util_bw = 0 
Wasted_Col = 0 
Wasted_Row = 0 
Idle = 22522 

BW Util Bottlenecks: 
RCDc_limit = 0 
RCDWRc_limit = 0 
WTRc_limit = 0 
RTWc_limit = 0 
CCDLc_limit = 0 
rwq = 0 
CCDLc_limit_alone = 0 
WTRc_limit_alone = 0 
RTWc_limit_alone = 0 

Commands details: 
total_CMD = 22522 
n_nop = 22522 
Read = 0 
Write = 0 
L2_Alloc = 0 
L2_WB = 0 
n_act = 0 
n_pre = 0 
n_ref = 0 
n_req = 0 
total_req = 0 

Dual Bus Interface Util: 
issued_total_row = 0 
issued_total_col = 0 
Row_Bus_Util =  0.000000 
CoL_Bus_Util = 0.000000 
Either_Row_CoL_Bus_Util = 0.000000 
Issued_on_Two_Bus_Simul_Util = 0.000000 
issued_two_Eff = -nan 
queue_avg = 0.000000 


dram_util_bins: 0 0 0 0 0 0 0 0 0 0
dram_eff_bins: 0 0 0 0 0 0 0 0 0 0
mrqq: max=0 avg=0
Memory Partition 7: 
Cache L2_bank_014:
MSHR contents

Cache L2_bank_015:
MSHR contents

In Dram Latency Queue (total = 0): 
DRAM[7]: 16 bks, busW=2 BL=16 CL=24, tRRD=12 tCCD=4, tRCD=24 tRAS=55 tRP=24 tRC=78
n_cmd=22522 n_nop=22522 n_act=0 n_pre=0 n_ref_event=0 n_req=0 n_rd=0 n_rd_L2_A=0 n_write=0 n_wr_bk=0 bw_util=0
n_activity=0 dram_eff=-nan
bk0: 0a 22522i bk1: 0a 22522i bk2: 0a 22522i bk3: 0a 22522i bk4: 0a 22522i bk5: 0a 22522i bk6: 0a 22522i bk7: 0a 22522i bk8: 0a 22522i bk9: 0a 22522i bk10: 0a 22522i bk11: 0a 22522i bk12: 0a 22522i bk13: 0a 22522i bk14: 0a 22522i bk15: 0a 22522i 

------------------------------------------------------------------------

Row_Buffer_Locality = -nan
Row_Buffer_Locality_read = -nan
Row_Buffer_Locality_write = -nan
Bank_Level_Parallism = -nan
Bank_Level_Parallism_Col = -nan
Bank_Level_Parallism_Ready = -nan
write_to_read_ratio_blp_rw_average = -nan
GrpLevelPara = -nan 

BW Util details:
bwutil = 0.000000 
total_CMD = 22522 
util_bw = 0 
Wasted_Col = 0 
Wasted_Row = 0 
Idle = 22522 

BW Util Bottlenecks: 
RCDc_limit = 0 
RCDWRc_limit = 0 
WTRc_limit = 0 
RTWc_limit = 0 
CCDLc_limit = 0 
rwq = 0 
CCDLc_limit_alone = 0 
WTRc_limit_alone = 0 
RTWc_limit_alone = 0 

Commands details: 
total_CMD = 22522 
n_nop = 22522 
Read = 0 
Write = 0 
L2_Alloc = 0 
L2_WB = 0 
n_act = 0 
n_pre = 0 
n_ref = 0 
n_req = 0 
total_req = 0 

Dual Bus Interface Util: 
issued_total_row = 0 
issued_total_col = 0 
Row_Bus_Util =  0.000000 
CoL_Bus_Util = 0.000000 
Either_Row_CoL_Bus_Util = 0.000000 
Issued_on_Two_Bus_Simul_Util = 0.000000 
issued_two_Eff = -nan 
queue_avg = 0.000000 


dram_util_bins: 0 0 0 0 0 0 0 0 0 0
dram_eff_bins: 0 0 0 0 0 0 0 0 0 0
mrqq: max=0 avg=0
Memory Partition 8: 
Cache L2_bank_016:
MSHR contents

Cache L2_bank_017:
MSHR contents

In Dram Latency Queue (total = 0): 
DRAM[8]: 16 bks, busW=2 BL=16 CL=24, tRRD=12 tCCD=4, tRCD=24 tRAS=55 tRP=24 tRC=78
n_cmd=22522 n_nop=22522 n_act=0 n_pre=0 n_ref_event=0 n_req=0 n_rd=0 n_rd_L2_A=0 n_write=0 n_wr_bk=0 bw_util=0
n_activity=0 dram_eff=-nan
bk0: 0a 22522i bk1: 0a 22522i bk2: 0a 22522i bk3: 0a 22522i bk4: 0a 22522i bk5: 0a 22522i bk6: 0a 22522i bk7: 0a 22522i bk8: 0a 22522i bk9: 0a 22522i bk10: 0a 22522i bk11: 0a 22522i bk12: 0a 22522i bk13: 0a 22522i bk14: 0a 22522i bk15: 0a 22522i 

------------------------------------------------------------------------

Row_Buffer_Locality = -nan
Row_Buffer_Locality_read = -nan
Row_Buffer_Locality_write = -nan
Bank_Level_Parallism = -nan
Bank_Level_Parallism_Col = -nan
Bank_Level_Parallism_Ready = -nan
write_to_read_ratio_blp_rw_average = -nan
GrpLevelPara = -nan 

BW Util details:
bwutil = 0.000000 
total_CMD = 22522 
util_bw = 0 
Wasted_Col = 0 
Wasted_Row = 0 
Idle = 22522 

BW Util Bottlenecks: 
RCDc_limit = 0 
RCDWRc_limit = 0 
WTRc_limit = 0 
RTWc_limit = 0 
CCDLc_limit = 0 
rwq = 0 
CCDLc_limit_alone = 0 
WTRc_limit_alone = 0 
RTWc_limit_alone = 0 

Commands details: 
total_CMD = 22522 
n_nop = 22522 
Read = 0 
Write = 0 
L2_Alloc = 0 
L2_WB = 0 
n_act = 0 
n_pre = 0 
n_ref = 0 
n_req = 0 
total_req = 0 

Dual Bus Interface Util: 
issued_total_row = 0 
issued_total_col = 0 
Row_Bus_Util =  0.000000 
CoL_Bus_Util = 0.000000 
Either_Row_CoL_Bus_Util = 0.000000 
Issued_on_Two_Bus_Simul_Util = 0.000000 
issued_two_Eff = -nan 
queue_avg = 0.000000 


dram_util_bins: 0 0 0 0 0 0 0 0 0 0
dram_eff_bins: 0 0 0 0 0 0 0 0 0 0
mrqq: max=0 avg=0
Memory Partition 9: 
Cache L2_bank_018:
MSHR contents

Cache L2_bank_019:
MSHR contents

In Dram Latency Queue (total = 0): 
DRAM[9]: 16 bks, busW=2 BL=16 CL=24, tRRD=12 tCCD=4, tRCD=24 tRAS=55 tRP=24 tRC=78
n_cmd=22522 n_nop=22522 n_act=0 n_pre=0 n_ref_event=0 n_req=0 n_rd=0 n_rd_L2_A=0 n_write=0 n_wr_bk=0 bw_util=0
n_activity=0 dram_eff=-nan
bk0: 0a 22522i bk1: 0a 22522i bk2: 0a 22522i bk3: 0a 22522i bk4: 0a 22522i bk5: 0a 22522i bk6: 0a 22522i bk7: 0a 22522i bk8: 0a 22522i bk9: 0a 22522i bk10: 0a 22522i bk11: 0a 22522i bk12: 0a 22522i bk13: 0a 22522i bk14: 0a 22522i bk15: 0a 22522i 

------------------------------------------------------------------------

Row_Buffer_Locality = -nan
Row_Buffer_Locality_read = -nan
Row_Buffer_Locality_write = -nan
Bank_Level_Parallism = -nan
Bank_Level_Parallism_Col = -nan
Bank_Level_Parallism_Ready = -nan
write_to_read_ratio_blp_rw_average = -nan
GrpLevelPara = -nan 

BW Util details:
bwutil = 0.000000 
total_CMD = 22522 
util_bw = 0 
Wasted_Col = 0 
Wasted_Row = 0 
Idle = 22522 

BW Util Bottlenecks: 
RCDc_limit = 0 
RCDWRc_limit = 0 
WTRc_limit = 0 
RTWc_limit = 0 
CCDLc_limit = 0 
rwq = 0 
CCDLc_limit_alone = 0 
WTRc_limit_alone = 0 
RTWc_limit_alone = 0 

Commands details: 
total_CMD = 22522 
n_nop = 22522 
Read = 0 
Write = 0 
L2_Alloc = 0 
L2_WB = 0 
n_act = 0 
n_pre = 0 
n_ref = 0 
n_req = 0 
total_req = 0 

Dual Bus Interface Util: 
issued_total_row = 0 
issued_total_col = 0 
Row_Bus_Util =  0.000000 
CoL_Bus_Util = 0.000000 
Either_Row_CoL_Bus_Util = 0.000000 
Issued_on_Two_Bus_Simul_Util = 0.000000 
issued_two_Eff = -nan 
queue_avg = 0.000000 


dram_util_bins: 0 0 0 0 0 0 0 0 0 0
dram_eff_bins: 0 0 0 0 0 0 0 0 0 0
mrqq: max=0 avg=0
Memory Partition 10: 
Cache L2_bank_020:
MSHR contents

Cache L2_bank_021:
MSHR contents

In Dram Latency Queue (total = 0): 
DRAM[10]: 16 bks, busW=2 BL=16 CL=24, tRRD=12 tCCD=4, tRCD=24 tRAS=55 tRP=24 tRC=78
n_cmd=22522 n_nop=22522 n_act=0 n_pre=0 n_ref_event=0 n_req=0 n_rd=0 n_rd_L2_A=0 n_write=0 n_wr_bk=0 bw_util=0
n_activity=0 dram_eff=-nan
bk0: 0a 22522i bk1: 0a 22522i bk2: 0a 22522i bk3: 0a 22522i bk4: 0a 22522i bk5: 0a 22522i bk6: 0a 22522i bk7: 0a 22522i bk8: 0a 22522i bk9: 0a 22522i bk10: 0a 22522i bk11: 0a 22522i bk12: 0a 22522i bk13: 0a 22522i bk14: 0a 22522i bk15: 0a 22522i 

------------------------------------------------------------------------

Row_Buffer_Locality = -nan
Row_Buffer_Locality_read = -nan
Row_Buffer_Locality_write = -nan
Bank_Level_Parallism = -nan
Bank_Level_Parallism_Col = -nan
Bank_Level_Parallism_Ready = -nan
write_to_read_ratio_blp_rw_average = -nan
GrpLevelPara = -nan 

BW Util details:
bwutil = 0.000000 
total_CMD = 22522 
util_bw = 0 
Wasted_Col = 0 
Wasted_Row = 0 
Idle = 22522 

BW Util Bottlenecks: 
RCDc_limit = 0 
RCDWRc_limit = 0 
WTRc_limit = 0 
RTWc_limit = 0 
CCDLc_limit = 0 
rwq = 0 
CCDLc_limit_alone = 0 
WTRc_limit_alone = 0 
RTWc_limit_alone = 0 

Commands details: 
total_CMD = 22522 
n_nop = 22522 
Read = 0 
Write = 0 
L2_Alloc = 0 
L2_WB = 0 
n_act = 0 
n_pre = 0 
n_ref = 0 
n_req = 0 
total_req = 0 

Dual Bus Interface Util: 
issued_total_row = 0 
issued_total_col = 0 
Row_Bus_Util =  0.000000 
CoL_Bus_Util = 0.000000 
Either_Row_CoL_Bus_Util = 0.000000 
Issued_on_Two_Bus_Simul_Util = 0.000000 
issued_two_Eff = -nan 
queue_avg = 0.000000 


dram_util_bins: 0 0 0 0 0 0 0 0 0 0
dram_eff_bins: 0 0 0 0 0 0 0 0 0 0
mrqq: max=0 avg=0
Memory Partition 11: 
Cache L2_bank_022:
MSHR contents

Cache L2_bank_023:
MSHR contents

In Dram Latency Queue (total = 0): 
DRAM[11]: 16 bks, busW=2 BL=16 CL=24, tRRD=12 tCCD=4, tRCD=24 tRAS=55 tRP=24 tRC=78
n_cmd=22522 n_nop=22522 n_act=0 n_pre=0 n_ref_event=0 n_req=0 n_rd=0 n_rd_L2_A=0 n_write=0 n_wr_bk=0 bw_util=0
n_activity=0 dram_eff=-nan
[...]

------------------------------------------------------------------------

Row_Buffer_Locality = 0.434854
Row_Buffer_Locality_read = 0.465541
Row_Buffer_Locality_write = 0.227424
Bank_Level_Parallism = 2.556424
Bank_Level_Parallism_Col = 1.925532
Bank_Level_Parallism_Ready = 1.523311
write_to_read_ratio_blp_rw_average = 0.245010
GrpLevelPara = 1.529078 

BW Util details:
bwutil = 0.124843 
total_CMD = 2713129 
util_bw = 338716 
Wasted_Col = 612566 
Wasted_Row = 269115 
Idle = 1492732 

BW Util Bottlenecks: 
RCDc_limit = 587114 
RCDWRc_limit = 66165 
WTRc_limit = 166526 
RTWc_limit = 142417 
CCDLc_limit = 68126 
rwq = 0 
CCDLc_limit_alone = 53431 
WTRc_limit_alone = 158064 
RTWc_limit_alone = 136184 

Commands details: 
total_CMD = 2713129 
n_nop = 2554579 
Read = 58910 
Write = 0 
L2_Alloc = 0 
L2_WB = 25769 
n_act = 38234 
n_pre = 38218 
n_ref = 0 
n_req = 67625 
total_req = 84679 

Dual Bus Interface Util: 
issued_total_row = 76452 
issued_total_col = 84679 
Row_Bus_Util =  0.028179 
CoL_Bus_Util = 0.031211 
Either_Row_CoL_Bus_Util = 0.058438 
Issued_on_Two_Bus_Simul_Util = 0.000951 
issued_two_Eff = 0.016279 
queue_avg = 1.117951 


dram_util_bins: 0 0 0 0 0 0 0 0 0 0
dram_eff_bins: 0 0 0 0 0 0 0 0 0 0
mrqq: max=64 avg=1.11795
Memory Partition 7: 
Cache L2_bank_014:
MSHR contents

Cache L2_bank_015:
MSHR contents

In Dram Latency Queue (total = 0): 
DRAM[7]: 16 bks, busW=2 BL=16 CL=24, tRRD=12 tCCD=4, tRCD=24 tRAS=55 tRP=24 tRC=78
n_cmd=2713129 n_nop=2554046 n_act=38490 n_pre=38474 n_ref_event=0 n_req=67875 n_rd=59139 n_rd_L2_A=0 n_write=0 n_wr_bk=25683 bw_util=0.1251
n_activity=1476513 dram_eff=0.2298
bk0: 3835a 2516134i bk1: 3875a 2514057i bk2: 3623a 2527997i bk3: 3656a 2528293i bk4: 3605a 2531719i bk5: 3560a 2533672i bk6: 3677a 2526473i bk7: 3678a 2529683i bk8: 3682a 2526364i bk9: 3587a 2531980i bk10: 3773a 2520713i bk11: 3705a 2520905i bk12: 3677a 2530735i bk13: 3716a 2523018i bk14: 3778a 2518513i bk15: 3712a 2526804i 

------------------------------------------------------------------------

Row_Buffer_Locality = 0.433164
Row_Buffer_Locality_read = 0.463924
Row_Buffer_Locality_write = 0.224931
Bank_Level_Parallism = 2.537799
Bank_Level_Parallism_Col = 1.913954
Bank_Level_Parallism_Ready = 1.506895
write_to_read_ratio_blp_rw_average = 0.243427
GrpLevelPara = 1.530269 

BW Util details:
bwutil = 0.125054 
total_CMD = 2713129 
util_bw = 339288 
Wasted_Col = 616151 
Wasted_Row = 274099 
Idle = 1483591 

BW Util Bottlenecks: 
RCDc_limit = 591083 
RCDWRc_limit = 66225 
WTRc_limit = 169803 
RTWc_limit = 142936 
CCDLc_limit = 68338 
rwq = 0 
CCDLc_limit_alone = 53358 
WTRc_limit_alone = 161510 
RTWc_limit_alone = 136249 

Commands details: 
total_CMD = 2713129 
n_nop = 2554046 
Read = 59139 
Write = 0 
L2_Alloc = 0 
L2_WB = 25683 
n_act = 38490 
n_pre = 38474 
n_ref = 0 
n_req = 67875 
total_req = 84822 

Dual Bus Interface Util: 
issued_total_row = 76964 
issued_total_col = 84822 
Row_Bus_Util =  0.028367 
CoL_Bus_Util = 0.031264 
Either_Row_CoL_Bus_Util = 0.058635 
Issued_on_Two_Bus_Simul_Util = 0.000996 
issued_two_Eff = 0.016991 
queue_avg = 1.056995 


dram_util_bins: 0 0 0 0 0 0 0 0 0 0
dram_eff_bins: 0 0 0 0 0 0 0 0 0 0
mrqq: max=64 avg=1.057
Memory Partition 8: 
Cache L2_bank_016:
MSHR contents

Cache L2_bank_017:
MSHR contents

In Dram Latency Queue (total = 0): 
DRAM[8]: 16 bks, busW=2 BL=16 CL=24, tRRD=12 tCCD=4, tRCD=24 tRAS=55 tRP=24 tRC=78
n_cmd=2713129 n_nop=2555788 n_act=37836 n_pre=37820 n_ref_event=0 n_req=67296 n_rd=58682 n_rd_L2_A=0 n_write=0 n_wr_bk=25494 bw_util=0.1241
n_activity=1477828 dram_eff=0.2278
bk0: 3842a 2515831i bk1: 3891a 2519284i bk2: 3708a 2526685i bk3: 3649a 2530618i bk4: 3575a 2536234i bk5: 3595a 2532691i bk6: 3626a 2533849i bk7: 3535a 2538008i bk8: 3607a 2530772i bk9: 3624a 2531466i bk10: 3687a 2524254i bk11: 3605a 2528189i bk12: 3686a 2526669i bk13: 3666a 2526135i bk14: 3764a 2527516i bk15: 3622a 2532742i 

------------------------------------------------------------------------

Row_Buffer_Locality = 0.438005
Row_Buffer_Locality_read = 0.469394
Row_Buffer_Locality_write = 0.224170
Bank_Level_Parallism = 2.506723
Bank_Level_Parallism_Col = 1.895303
Bank_Level_Parallism_Ready = 1.500331
write_to_read_ratio_blp_rw_average = 0.246274
GrpLevelPara = 1.521508 

BW Util details:
bwutil = 0.124102 
total_CMD = 2713129 
util_bw = 336704 
Wasted_Col = 613348 
Wasted_Row = 273794 
Idle = 1489283 

BW Util Bottlenecks: 
RCDc_limit = 583526 
RCDWRc_limit = 65864 
WTRc_limit = 163977 
RTWc_limit = 144208 
CCDLc_limit = 67896 
rwq = 0 
CCDLc_limit_alone = 53009 
WTRc_limit_alone = 155905 
RTWc_limit_alone = 137393 

Commands details: 
total_CMD = 2713129 
n_nop = 2555788 
Read = 58682 
Write = 0 
L2_Alloc = 0 
L2_WB = 25494 
n_act = 37836 
n_pre = 37820 
n_ref = 0 
n_req = 67296 
total_req = 84176 

Dual Bus Interface Util: 
issued_total_row = 75656 
issued_total_col = 84176 
Row_Bus_Util =  0.027885 
CoL_Bus_Util = 0.031025 
Either_Row_CoL_Bus_Util = 0.057992 
Issued_on_Two_Bus_Simul_Util = 0.000918 
issued_two_Eff = 0.015832 
queue_avg = 1.061892 


dram_util_bins: 0 0 0 0 0 0 0 0 0 0
dram_eff_bins: 0 0 0 0 0 0 0 0 0 0
mrqq: max=64 avg=1.06189
Memory Partition 9: 
Cache L2_bank_018:
MSHR contents

Cache L2_bank_019:
MSHR contents

In Dram Latency Queue (total = 0): 
DRAM[9]: 16 bks, busW=2 BL=16 CL=24, tRRD=12 tCCD=4, tRCD=24 tRAS=55 tRP=24 tRC=78
n_cmd=2713129 n_nop=2553793 n_act=38468 n_pre=38452 n_ref_event=0 n_req=68094 n_rd=59308 n_rd_L2_A=0 n_write=0 n_wr_bk=25689 bw_util=0.1253
n_activity=1474998 dram_eff=0.2305
bk0: 3954a 2513803i bk1: 3856a 2519510i bk2: 3725a 2524033i bk3: 3683a 2528793i bk4: 3585a 2534294i bk5: 3531a 2536705i bk6: 3632a 2528025i bk7: 3622a 2530825i bk8: 3596a 2525065i bk9: 3640a 2528748i bk10: 3678a 2523559i bk11: 3781a 2520140i bk12: 3834a 2515898i bk13: 3717a 2528748i bk14: 3800a 2516865i bk15: 3674a 2525274i 

------------------------------------------------------------------------

Row_Buffer_Locality = 0.435310
Row_Buffer_Locality_read = 0.466177
Row_Buffer_Locality_write = 0.226952
Bank_Level_Parallism = 2.543714
Bank_Level_Parallism_Col = 1.911648
Bank_Level_Parallism_Ready = 1.497135
write_to_read_ratio_blp_rw_average = 0.245581
GrpLevelPara = 1.531258 

BW Util details:
bwutil = 0.125312 
total_CMD = 2713129 
util_bw = 339988 
Wasted_Col = 617213 
Wasted_Row = 272024 
Idle = 1483904 

BW Util Bottlenecks: 
RCDc_limit = 589626 
RCDWRc_limit = 66656 
WTRc_limit = 167562 
RTWc_limit = 147749 
CCDLc_limit = 69417 
rwq = 0 
CCDLc_limit_alone = 54586 
WTRc_limit_alone = 159644 
RTWc_limit_alone = 140836 

Commands details: 
total_CMD = 2713129 
n_nop = 2553793 
Read = 59308 
Write = 0 
L2_Alloc = 0 
L2_WB = 25689 
n_act = 38468 
n_pre = 38452 
n_ref = 0 
n_req = 68094 
total_req = 84997 

Dual Bus Interface Util: 
issued_total_row = 76920 
issued_total_col = 84997 
Row_Bus_Util =  0.028351 
CoL_Bus_Util = 0.031328 
Either_Row_CoL_Bus_Util = 0.058728 
Issued_on_Two_Bus_Simul_Util = 0.000951 
issued_two_Eff = 0.016198 
queue_avg = 1.093396 


dram_util_bins: 0 0 0 0 0 0 0 0 0 0
dram_eff_bins: 0 0 0 0 0 0 0 0 0 0
mrqq: max=64 avg=1.0934
Memory Partition 10: 
Cache L2_bank_020:
MSHR contents

Cache L2_bank_021:
MSHR contents

In Dram Latency Queue (total = 0): 
DRAM[10]: 16 bks, busW=2 BL=16 CL=24, tRRD=12 tCCD=4, tRCD=24 tRAS=55 tRP=24 tRC=78
n_cmd=2713129 n_nop=2554769 n_act=38198 n_pre=38182 n_ref_event=0 n_req=67765 n_rd=59071 n_rd_L2_A=0 n_write=0 n_wr_bk=25503 bw_util=0.1247
n_activity=1462438 dram_eff=0.2313
bk0: 3756a 2519758i bk1: 3844a 2519451i bk2: 3578a 2532831i bk3: 3709a 2528064i bk4: 3679a 2528052i bk5: 3637a 2529512i bk6: 3619a 2526918i bk7: 3695a 2520897i bk8: 3599a 2527190i bk9: 3686a 2525640i bk10: 3667a 2522662i bk11: 3662a 2525188i bk12: 3616a 2531702i bk13: 3783a 2520893i bk14: 3751a 2521587i bk15: 3790a 2517935i 

------------------------------------------------------------------------

Row_Buffer_Locality = 0.436553
Row_Buffer_Locality_read = 0.467421
Row_Buffer_Locality_write = 0.226823
Bank_Level_Parallism = 2.571751
Bank_Level_Parallism_Col = 1.931578
Bank_Level_Parallism_Ready = 1.518442
write_to_read_ratio_blp_rw_average = 0.243716
GrpLevelPara = 1.532009 

BW Util details:
bwutil = 0.124689 
total_CMD = 2713129 
util_bw = 338296 
Wasted_Col = 611147 
Wasted_Row = 267577 
Idle = 1496109 

BW Util Bottlenecks: 
RCDc_limit = 585339 
RCDWRc_limit = 65716 
WTRc_limit = 167816 
RTWc_limit = 143380 
CCDLc_limit = 67917 
rwq = 0 
CCDLc_limit_alone = 53417 
WTRc_limit_alone = 159674 
RTWc_limit_alone = 137022 

Commands details: 
total_CMD = 2713129 
n_nop = 2554769 
Read = 59071 
Write = 0 
L2_Alloc = 0 
L2_WB = 25503 
n_act = 38198 
n_pre = 38182 
n_ref = 0 
n_req = 67765 
total_req = 84574 

Dual Bus Interface Util: 
issued_total_row = 76380 
issued_total_col = 84574 
Row_Bus_Util =  0.028152 
CoL_Bus_Util = 0.031172 
Either_Row_CoL_Bus_Util = 0.058368 
Issued_on_Two_Bus_Simul_Util = 0.000956 
issued_two_Eff = 0.016380 
queue_avg = 1.144134 


dram_util_bins: 0 0 0 0 0 0 0 0 0 0
dram_eff_bins: 0 0 0 0 0 0 0 0 0 0
mrqq: max=64 avg=1.14413
Memory Partition 11: 
Cache L2_bank_022:
MSHR contents

Cache L2_bank_023:
MSHR contents

In Dram Latency Queue (total = 0): 
DRAM[11]: 16 bks, busW=2 BL=16 CL=24, tRRD=12 tCCD=4, tRCD=24 tRAS=55 tRP=24 tRC=78
n_cmd=2713129 n_nop=2555828 n_act=38080 n_pre=38064 n_ref_event=0 n_req=67007 n_rd=58390 n_rd_L2_A=0 n_write=0 n_wr_bk=25306 bw_util=0.1234
n_activity=1465031 dram_eff=0.2285
bk0: 3798a 2512977i bk1: 3827a 2515787i bk2: 3695a 2529248i bk3: 3604a 2531915i bk4: 3509a 2537164i bk5: 3546a 2536141i bk6: 3573a 2534673i bk7: 3594a 2530725i bk8: 3592a 2523008i bk9: 3693a 2521459i bk10: 3726a 2514114i bk11: 3630a 2528368i bk12: 3593a 2536206i bk13: 3564a 2536242i bk14: 3757a 2524221i bk15: 3689a 2526048i 

------------------------------------------------------------------------

Row_Buffer_Locality = 0.431940
Row_Buffer_Locality_read = 0.462339
Row_Buffer_Locality_write = 0.225949
Bank_Level_Parallism = 2.536124
Bank_Level_Parallism_Col = 1.905943
Bank_Level_Parallism_Ready = 1.496456
write_to_read_ratio_blp_rw_average = 0.244135
GrpLevelPara = 1.525943 

BW Util details:
bwutil = 0.123394 
total_CMD = 2713129 
util_bw = 334784 
Wasted_Col = 612317 
Wasted_Row = 270607 
Idle = 1495421 

BW Util Bottlenecks: 
RCDc_limit = 588181 
RCDWRc_limit = 65089 
WTRc_limit = 165711 
RTWc_limit = 143737 
CCDLc_limit = 67158 
rwq = 0 
CCDLc_limit_alone = 52825 
WTRc_limit_alone = 157964 
RTWc_limit_alone = 137151 

Commands details: 
total_CMD = 2713129 
n_nop = 2555828 
Read = 58390 
Write = 0 
L2_Alloc = 0 
L2_WB = 25306 
n_act = 38080 
n_pre = 38064 
n_ref = 0 
n_req = 67007 
total_req = 83696 

Dual Bus Interface Util: 
issued_total_row = 76144 
issued_total_col = 83696 
Row_Bus_Util =  0.028065 
CoL_Bus_Util = 0.030849 
Either_Row_CoL_Bus_Util = 0.057978 
Issued_on_Two_Bus_Simul_Util = 0.000936 
issued_two_Eff = 0.016141 
queue_avg = 1.035178 


dram_util_bins: 0 0 0 0 0 0 0 0 0 0
dram_eff_bins: 0 0 0 0 0 0 0 0 0 0
mrqq: max=64 avg=1.03518

========= L2 cache stats =========
L2_cache_bank[0]: Access = 115809, Miss = 35730, Miss_rate = 0.309, Pending_hits = 77, Reservation_fails = 0
L2_cache_bank[1]: Access = 117096, Miss = 35540, Miss_rate = 0.304, Pending_hits = 89, Reservation_fails = 0
L2_cache_bank[2]: Access = 118186, Miss = 35648, Miss_rate = 0.302, Pending_hits = 327, Reservation_fails = 0
L2_cache_bank[3]: Access = 116623, Miss = 35620, Miss_rate = 0.305, Pending_hits = 91, Reservation_fails = 0
L2_cache_bank[4]: Access = 115625, Miss = 35624, Miss_rate = 0.308, Pending_hits = 82, Reservation_fails = 0
L2_cache_bank[5]: Access = 115761, Miss = 35400, Miss_rate = 0.306, Pending_hits = 82, Reservation_fails = 0
L2_cache_bank[6]: Access = 117203, Miss = 36002, Miss_rate = 0.307, Pending_hits = 315, Reservation_fails = 0
L2_cache_bank[7]: Access = 115039, Miss = 35646, Miss_rate = 0.310, Pending_hits = 84, Reservation_fails = 0
L2_cache_bank[8]: Access = 115215, Miss = 35411, Miss_rate = 0.307, Pending_hits = 84, Reservation_fails = 0
L2_cache_bank[9]: Access = 116628, Miss = 35506, Miss_rate = 0.304, Pending_hits = 105, Reservation_fails = 0
L2_cache_bank[10]: Access = 118058, Miss = 35446, Miss_rate = 0.300, Pending_hits = 338, Reservation_fails = 0
L2_cache_bank[11]: Access = 116098, Miss = 35410, Miss_rate = 0.305, Pending_hits = 78, Reservation_fails = 0
L2_cache_bank[12]: Access = 116647, Miss = 35770, Miss_rate = 0.307, Pending_hits = 95, Reservation_fails = 0
L2_cache_bank[13]: Access = 117083, Miss = 35605, Miss_rate = 0.304, Pending_hits = 82, Reservation_fails = 125
L2_cache_bank[14]: Access = 117011, Miss = 35882, Miss_rate = 0.307, Pending_hits = 310, Reservation_fails = 0
L2_cache_bank[15]: Access = 116950, Miss = 35721, Miss_rate = 0.305, Pending_hits = 85, Reservation_fails = 0
L2_cache_bank[16]: Access = 351411, Miss = 35723, Miss_rate = 0.102, Pending_hits = 98, Reservation_fails = 125
L2_cache_bank[17]: Access = 117095, Miss = 35415, Miss_rate = 0.302, Pending_hits = 99, Reservation_fails = 0
L2_cache_bank[18]: Access = 117040, Miss = 36032, Miss_rate = 0.308, Pending_hits = 331, Reservation_fails = 0
L2_cache_bank[19]: Access = 116433, Miss = 35732, Miss_rate = 0.307, Pending_hits = 84, Reservation_fails = 0
L2_cache_bank[20]: Access = 115512, Miss = 35493, Miss_rate = 0.307, Pending_hits = 83, Reservation_fails = 0
L2_cache_bank[21]: Access = 115605, Miss = 36034, Miss_rate = 0.312, Pending_hits = 93, Reservation_fails = 0
L2_cache_bank[22]: Access = 116729, Miss = 35472, Miss_rate = 0.304, Pending_hits = 330, Reservation_fails = 0
L2_cache_bank[23]: Access = 115852, Miss = 35375, Miss_rate = 0.305, Pending_hits = 74, Reservation_fails = 0
L2_total_cache_accesses = 3030709
L2_total_cache_misses = 855237
L2_total_cache_miss_rate = 0.2822
L2_total_cache_pending_hits = 3516
L2_total_cache_reservation_fails = 250
L2_total_cache_breakdown:
	L2_cache_stats_breakdown[GLOBAL_ACC_R][HIT] = 1637892
	L2_cache_stats_breakdown[GLOBAL_ACC_R][HIT_RESERVED] = 3516
	L2_cache_stats_breakdown[GLOBAL_ACC_R][MISS] = 264335
	L2_cache_stats_breakdown[GLOBAL_ACC_R][RESERVATION_FAIL] = 250
	L2_cache_stats_breakdown[GLOBAL_ACC_R][SECTOR_MISS] = 441360
	L2_cache_stats_breakdown[GLOBAL_ACC_R][MSHR_HIT] = 3516
	L2_cache_stats_breakdown[LOCAL_ACC_R][HIT] = 0
	L2_cache_stats_breakdown[LOCAL_ACC_R][HIT_RESERVED] = 0
	L2_cache_stats_breakdown[LOCAL_ACC_R][MISS] = 0
	L2_cache_stats_breakdown[LOCAL_ACC_R][RESERVATION_FAIL] = 0
	L2_cache_stats_breakdown[LOCAL_ACC_R][SECTOR_MISS] = 0
	L2_cache_stats_breakdown[LOCAL_ACC_R][MSHR_HIT] = 0
	L2_cache_stats_breakdown[CONST_ACC_R][HIT] = 0
	L2_cache_stats_breakdown[CONST_ACC_R][HIT_RESERVED] = 0
	L2_cache_stats_breakdown[CONST_ACC_R][MISS] = 0
	L2_cache_stats_breakdown[CONST_ACC_R][RESERVATION_FAIL] = 0
	L2_cache_stats_breakdown[CONST_ACC_R][SECTOR_MISS] = 0
	L2_cache_stats_breakdown[CONST_ACC_R][MSHR_HIT] = 0
	L2_cache_stats_breakdown[TEXTURE_ACC_R][HIT] = 0
	L2_cache_stats_breakdown[TEXTURE_ACC_R][HIT_RESERVED] = 0
	L2_cache_stats_breakdown[TEXTURE_ACC_R][MISS] = 0
	L2_cache_stats_breakdown[TEXTURE_ACC_R][RESERVATION_FAIL] = 0
	L2_cache_stats_breakdown[TEXTURE_ACC_R][SECTOR_MISS] = 0
	L2_cache_stats_breakdown[TEXTURE_ACC_R][MSHR_HIT] = 0
	L2_cache_stats_breakdown[GLOBAL_ACC_W][HIT] = 534064
	L2_cache_stats_breakdown[GLOBAL_ACC_W][HIT_RESERVED] = 0
	L2_cache_stats_breakdown[GLOBAL_ACC_W][MISS] = 37387
	L2_cache_stats_breakdown[GLOBAL_ACC_W][RESERVATION_FAIL] = 0
	L2_cache_stats_breakdown[GLOBAL_ACC_W][SECTOR_MISS] = 112155
	L2_cache_stats_breakdown[GLOBAL_ACC_W][MSHR_HIT] = 0
	L2_cache_stats_breakdown[LOCAL_ACC_W][HIT] = 0
	L2_cache_stats_breakdown[LOCAL_ACC_W][HIT_RESERVED] = 0
	L2_cache_stats_breakdown[LOCAL_ACC_W][MISS] = 0
	L2_cache_stats_breakdown[LOCAL_ACC_W][RESERVATION_FAIL] = 0
	L2_cache_stats_breakdown[LOCAL_ACC_W][SECTOR_MISS] = 0
	L2_cache_stats_breakdown[LOCAL_ACC_W][MSHR_HIT] = 0
	L2_cache_stats_breakdown[L1_WRBK_ACC][HIT] = 0
	L2_cache_stats_breakdown[L1_WRBK_ACC][HIT_RESERVED] = 0
	L2_cache_stats_breakdown[L1_WRBK_ACC][MISS] = 0
	L2_cache_stats_breakdown[L1_WRBK_ACC][RESERVATION_FAIL] = 0
	L2_cache_stats_breakdown[L1_WRBK_ACC][SECTOR_MISS] = 0
	L2_cache_stats_breakdown[L1_WRBK_ACC][MSHR_HIT] = 0
	L2_cache_stats_breakdown[L2_WRBK_ACC][HIT] = 0
	L2_cache_stats_breakdown[L2_WRBK_ACC][HIT_RESERVED] = 0
	L2_cache_stats_breakdown[L2_WRBK_ACC][MISS] = 0
	L2_cache_stats_breakdown[L2_WRBK_ACC][RESERVATION_FAIL] = 0
	L2_cache_stats_breakdown[L2_WRBK_ACC][SECTOR_MISS] = 0
	L2_cache_stats_breakdown[L2_WRBK_ACC][MSHR_HIT] = 0
	L2_cache_stats_breakdown[INST_ACC_R][HIT] = 0
	L2_cache_stats_breakdown[INST_ACC_R][HIT_RESERVED] = 0
	L2_cache_stats_breakdown[INST_ACC_R][MISS] = 0
	L2_cache_stats_breakdown[INST_ACC_R][RESERVATION_FAIL] = 0
	L2_cache_stats_breakdown[INST_ACC_R][SECTOR_MISS] = 0
	L2_cache_stats_breakdown[INST_ACC_R][MSHR_HIT] = 0
	L2_cache_stats_breakdown[L1_WR_ALLOC_R][HIT] = 0
	L2_cache_stats_breakdown[L1_WR_ALLOC_R][HIT_RESERVED] = 0
	L2_cache_stats_breakdown[L1_WR_ALLOC_R][MISS] = 0
	L2_cache_stats_breakdown[L1_WR_ALLOC_R][RESERVATION_FAIL] = 0
	L2_cache_stats_breakdown[L1_WR_ALLOC_R][SECTOR_MISS] = 0
	L2_cache_stats_breakdown[L1_WR_ALLOC_R][MSHR_HIT] = 0
	L2_cache_stats_breakdown[L2_WR_ALLOC_R][HIT] = 0
	L2_cache_stats_breakdown[L2_WR_ALLOC_R][HIT_RESERVED] = 0
	L2_cache_stats_breakdown[L2_WR_ALLOC_R][MISS] = 0
	L2_cache_stats_breakdown[L2_WR_ALLOC_R][RESERVATION_FAIL] = 0
	L2_cache_stats_breakdown[L2_WR_ALLOC_R][SECTOR_MISS] = 0
	L2_cache_stats_breakdown[L2_WR_ALLOC_R][MSHR_HIT] = 0
	L2_cache_stats_breakdown[GLOBAL_ACC_R][TOTAL_ACCESS] = 2347103
	L2_cache_stats_breakdown[GLOBAL_ACC_W][TOTAL_ACCESS] = 683606
L2_total_cache_reservation_fail_breakdown:
	L2_cache_stats_fail_breakdown[GLOBAL_ACC_R][MSHR_MERGE_ENRTY_FAIL] = 250
L2_cache_data_port_util = 0.088
L2_cache_fill_port_util = 0.028

icnt_total_pkts_mem_to_simt=3030709
icnt_total_pkts_simt_to_mem=3030709
LD_mem_lat_dist  0 0 0 0 0 0 0 0 0 0 0 0 0 0 0 0 0 0 0 0 0 0 0 0 0 0 0
ST_mem_lat_dist  0 0 0 0 0 0 0 0 0 0 0 0 0 0 0 0 0 0 0 0 0 0 0 0 0 0 0
----------------------------Interconnect-DETAILS--------------------------------
Req_Network_injected_packets_num = 3030709
Req_Network_cycles = 1057983
Req_Network_injected_packets_per_cycle =       2.8646 
Req_Network_conflicts_per_cycle =       1.0536
Req_Network_conflicts_per_cycle_util =       1.5485
Req_Bank_Level_Parallism =       4.2102
Req_Network_in_buffer_full_per_cycle =       0.0000
Req_Network_in_buffer_avg_util =       0.8079
Req_Network_out_buffer_full_per_cycle =       0.0000
Req_Network_out_buffer_avg_util =       0.6524

Reply_Network_injected_packets_num = 3030709
Reply_Network_cycles = 1057983
Reply_Network_injected_packets_per_cycle =        2.8646
Reply_Network_conflicts_per_cycle =        0.8385
Reply_Network_conflicts_per_cycle_util =       1.2265
Reply_Bank_Level_Parallism =       4.1899
Reply_Network_in_buffer_full_per_cycle =       0.0000
Reply_Network_in_buffer_avg_util =       0.3368
Reply_Network_out_buffer_full_per_cycle =       0.0000
Reply_Network_out_buffer_avg_util =       0.0955
----------------------------END-of-Interconnect-DETAILS-------------------------


gpgpu_simulation_time = 0 days, 0 hrs, 22 min, 5 sec (1325 sec)
gpgpu_simulation_rate = 104202 (inst/sec)
gpgpu_simulation_rate = 798 (cycle/sec)
gpgpu_silicon_slowdown = 1710526x
GPGPU-Sim: synchronize waiting for inactive GPU simulation
GPGPU-Sim API: Stream Manager State
GPGPU-Sim: detected inactive GPU simulation thread
GPGPU-Sim: synchronize waiting for inactive GPU simulation
GPGPU-Sim API: Stream Manager State
GPGPU-Sim: detected inactive GPU simulation thread
kernel + memcopy time = 1324222.430944 ms
kernel execution time = 1324628.759146 ms
GPGPU-Sim: *** exit detected ***
