

        *** GPGPU-Sim Simulator Version 4.2.0  [build gpgpu-sim_git-commit-6b244a5d3be7811f16c312905c1c7fee137ac7a4_modified_0.0] ***


GPGPU-Sim PTX: simulation mode 0 (can change with PTX_SIM_MODE_FUNC environment variable:
               1=functional simulation only, 0=detailed performance simulator)
GPGPU-Sim PTX: overriding embedded ptx with ptx file (PTX_SIM_USE_PTX_FILE is set)
GPGPU-Sim: Configuration options:

-save_embedded_ptx                      0 # saves ptx files embedded in binary as <n>.ptx
-keep                                   0 # keep intermediate files created by GPGPU-Sim when interfacing with external programs
-gpgpu_ptx_save_converted_ptxplus                    0 # Saved converted ptxplus to a file
-gpgpu_occupancy_sm_number                   75 # The SM number to pass to ptxas when getting register usage for computing GPU occupancy. This parameter is required in the config.
-ptx_opcode_latency_int           4,4,4,4,21 # Opcode latencies for integers <ADD,MAX,MUL,MAD,DIV,SHFL>Default 1,1,19,25,145,32
-ptx_opcode_latency_fp           4,4,4,4,39 # Opcode latencies for single precision floating points <ADD,MAX,MUL,MAD,DIV>Default 1,1,1,1,30
-ptx_opcode_latency_dp      64,64,64,64,330 # Opcode latencies for double precision floating points <ADD,MAX,MUL,MAD,DIV>Default 8,8,8,8,335
-ptx_opcode_latency_sfu                   21 # Opcode latencies for SFU instructionsDefault 8
-ptx_opcode_latency_tesnor                   64 # Opcode latencies for Tensor instructionsDefault 64
-ptx_opcode_initiation_int            2,2,2,2,2 # Opcode initiation intervals for integers <ADD,MAX,MUL,MAD,DIV,SHFL>Default 1,1,4,4,32,4
-ptx_opcode_initiation_fp            2,2,2,2,4 # Opcode initiation intervals for single precision floating points <ADD,MAX,MUL,MAD,DIV>Default 1,1,1,1,5
-ptx_opcode_initiation_dp      64,64,64,64,130 # Opcode initiation intervals for double precision floating points <ADD,MAX,MUL,MAD,DIV>Default 8,8,8,8,130
-ptx_opcode_initiation_sfu                    8 # Opcode initiation intervals for sfu instructionsDefault 8
-ptx_opcode_initiation_tensor                   64 # Opcode initiation intervals for tensor instructionsDefault 64
-cdp_latency         7200,8000,100,12000,1600 # CDP API latency <cudaStreamCreateWithFlags, cudaGetParameterBufferV2_init_perWarp, cudaGetParameterBufferV2_perKernel, cudaLaunchDeviceV2_init_perWarp, cudaLaunchDevicV2_perKernel>Default 7200,8000,100,12000,1600
-network_mode                           2 # Interconnection network mode
-inter_config_file                   mesh # Interconnection network config file
-icnt_in_buffer_limit                  512 # in_buffer_limit
-icnt_out_buffer_limit                  512 # out_buffer_limit
-icnt_subnets                           2 # subnets
-icnt_arbiter_algo                      1 # arbiter_algo
-icnt_verbose                           0 # inct_verbose
-icnt_grant_cycles                      1 # grant_cycles
-gpgpu_ptx_use_cuobjdump                    1 # Use cuobjdump to extract ptx and sass from binaries
-gpgpu_experimental_lib_support                    0 # Try to extract code from cuda libraries [Broken because of unknown cudaGetExportTable]
-checkpoint_option                      0 #  checkpointing flag (0 = no checkpoint)
-checkpoint_kernel                      1 #  checkpointing during execution of which kernel (1- 1st kernel)
-checkpoint_CTA                         0 #  checkpointing after # of CTA (< less than total CTA)
-resume_option                          0 #  resume flag (0 = no resume)
-resume_kernel                          0 #  Resume from which kernel (1= 1st kernel)
-resume_CTA                             0 #  resume from which CTA 
-checkpoint_CTA_t                       0 #  resume from which CTA 
-checkpoint_insn_Y                      0 #  resume from which CTA 
-gpgpu_ptx_convert_to_ptxplus                    0 # Convert SASS (native ISA) to ptxplus and run ptxplus
-gpgpu_ptx_force_max_capability                   75 # Force maximum compute capability
-gpgpu_ptx_inst_debug_to_file                    0 # Dump executed instructions' debug information to file
-gpgpu_ptx_inst_debug_file       inst_debug.txt # Executed instructions' debug output file
-gpgpu_ptx_inst_debug_thread_uid                    1 # Thread UID for executed instructions' debug output
-gpgpu_simd_model                       1 # 1 = post-dominator
-gpgpu_shader_core_pipeline              1024:32 # shader core pipeline config, i.e., {<nthread>:<warpsize>}
-gpgpu_tex_cache:l1  N:4:128:256,L:R:m:N:L,T:512:8,128:2 # per-shader L1 texture cache  (READ-ONLY) config  {<nsets>:<bsize>:<assoc>,<rep>:<wr>:<alloc>:<wr_alloc>,<mshr>:<N>:<merge>,<mq>:<rf>}
-gpgpu_const_cache:l1 N:128:64:8,L:R:f:N:L,S:2:64,4 # per-shader L1 constant memory cache  (READ-ONLY) config  {<nsets>:<bsize>:<assoc>,<rep>:<wr>:<alloc>:<wr_alloc>,<mshr>:<N>:<merge>,<mq>} 
-gpgpu_cache:il1     N:64:128:16,L:R:f:N:L,S:2:48,4 # shader L1 instruction cache config  {<nsets>:<bsize>:<assoc>,<rep>:<wr>:<alloc>:<wr_alloc>,<mshr>:<N>:<merge>,<mq>} 
-gpgpu_cache:dl1     S:4:128:64,L:T:m:L:L,A:256:32,16:0,32 # per-shader L1 data cache config  {<nsets>:<bsize>:<assoc>,<rep>:<wr>:<alloc>:<wr_alloc>,<mshr>:<N>:<merge>,<mq> | none}
-gpgpu_l1_cache_write_ratio                   25 # L1D write ratio
-gpgpu_l1_banks                         4 # The number of L1 cache banks
-gpgpu_l1_banks_byte_interleaving                   32 # l1 banks byte interleaving granularity
-gpgpu_l1_banks_hashing_function                    0 # l1 banks hashing function
-gpgpu_l1_latency                      32 # L1 Hit Latency
-gpgpu_smem_latency                    30 # smem Latency
-gpgpu_cache:dl1PrefL1                 none # per-shader L1 data cache config  {<nsets>:<bsize>:<assoc>,<rep>:<wr>:<alloc>:<wr_alloc>,<mshr>:<N>:<merge>,<mq> | none}
-gpgpu_cache:dl1PrefShared                 none # per-shader L1 data cache config  {<nsets>:<bsize>:<assoc>,<rep>:<wr>:<alloc>:<wr_alloc>,<mshr>:<N>:<merge>,<mq> | none}
-gpgpu_gmem_skip_L1D                    0 # global memory access skip L1D cache (implements -Xptxas -dlcm=cg, default=no skip)
-gpgpu_perfect_mem                      0 # enable perfect memory mode (no cache miss)
-n_regfile_gating_group                    4 # group of lanes that should be read/written together)
-gpgpu_clock_gated_reg_file                    0 # enable clock gated reg file for power calculations
-gpgpu_clock_gated_lanes                    0 # enable clock gated lanes for power calculations
-gpgpu_shader_registers                65536 # Number of registers per shader core. Limits number of concurrent CTAs. (default 8192)
-gpgpu_registers_per_block                65536 # Maximum number of registers per CTA. (default 8192)
-gpgpu_ignore_resources_limitation                    0 # gpgpu_ignore_resources_limitation (default 0)
-gpgpu_shader_cta                      16 # Maximum number of concurrent CTAs in shader (default 8)
-gpgpu_num_cta_barriers                   16 # Maximum number of named barriers per CTA (default 16)
-gpgpu_n_clusters                      30 # number of processing clusters
-gpgpu_n_cores_per_cluster                    1 # number of simd cores per cluster
-gpgpu_n_cluster_ejection_buffer_size                   32 # number of packets in ejection buffer
-gpgpu_n_ldst_response_buffer_size                    2 # number of response packets in ld/st unit ejection buffer
-gpgpu_shmem_per_block                49152 # Size of shared memory per thread block or CTA (default 48kB)
-gpgpu_shmem_size                   65536 # Size of shared memory per shader core (default 16kB)
-gpgpu_shmem_option                 32,64 # Option list of shared memory sizes
-gpgpu_unified_l1d_size                   96 # Size of unified data cache(L1D + shared memory) in KB
-gpgpu_adaptive_cache_config                    1 # adaptive_cache_config
-gpgpu_shmem_sizeDefault                65536 # Size of shared memory per shader core (default 16kB)
-gpgpu_shmem_size_PrefL1                16384 # Size of shared memory per shader core (default 16kB)
-gpgpu_shmem_size_PrefShared                16384 # Size of shared memory per shader core (default 16kB)
-gpgpu_shmem_num_banks                   32 # Number of banks in the shared memory in each shader core (default 16)
-gpgpu_shmem_limited_broadcast                    0 # Limit shared memory to do one broadcast per cycle (default on)
-gpgpu_shmem_warp_parts                    1 # Number of portions a warp is divided into for shared memory bank conflict check 
-gpgpu_mem_unit_ports                    1 # The number of memory transactions allowed per core cycle
-gpgpu_shmem_warp_parts                    1 # Number of portions a warp is divided into for shared memory bank conflict check 
-gpgpu_warpdistro_shader                   -1 # Specify which shader core to collect the warp size distribution from
-gpgpu_warp_issue_shader                    0 # Specify which shader core to collect the warp issue distribution from
-gpgpu_local_mem_map                    1 # Mapping from local memory space address to simulated GPU physical address space (default = enabled)
-gpgpu_num_reg_banks                    8 # Number of register banks (default = 8)
-gpgpu_reg_bank_use_warp_id                    0 # Use warp ID in mapping registers to banks (default = off)
-gpgpu_sub_core_model                    1 # Sub Core Volta/Pascal model (default = off)
-gpgpu_enable_specialized_operand_collector                    0 # enable_specialized_operand_collector
-gpgpu_operand_collector_num_units_sp                    4 # number of collector units (default = 4)
-gpgpu_operand_collector_num_units_dp                    0 # number of collector units (default = 0)
-gpgpu_operand_collector_num_units_sfu                    4 # number of collector units (default = 4)
-gpgpu_operand_collector_num_units_int                    0 # number of collector units (default = 0)
-gpgpu_operand_collector_num_units_tensor_core                    4 # number of collector units (default = 4)
-gpgpu_operand_collector_num_units_mem                    2 # number of collector units (default = 2)
-gpgpu_operand_collector_num_units_gen                    8 # number of collector units (default = 0)
-gpgpu_operand_collector_num_in_ports_sp                    1 # number of collector unit in ports (default = 1)
-gpgpu_operand_collector_num_in_ports_dp                    0 # number of collector unit in ports (default = 0)
-gpgpu_operand_collector_num_in_ports_sfu                    1 # number of collector unit in ports (default = 1)
-gpgpu_operand_collector_num_in_ports_int                    0 # number of collector unit in ports (default = 0)
-gpgpu_operand_collector_num_in_ports_tensor_core                    1 # number of collector unit in ports (default = 1)
-gpgpu_operand_collector_num_in_ports_mem                    1 # number of collector unit in ports (default = 1)
-gpgpu_operand_collector_num_in_ports_gen                    8 # number of collector unit in ports (default = 0)
-gpgpu_operand_collector_num_out_ports_sp                    1 # number of collector unit in ports (default = 1)
-gpgpu_operand_collector_num_out_ports_dp                    0 # number of collector unit in ports (default = 0)
-gpgpu_operand_collector_num_out_ports_sfu                    1 # number of collector unit in ports (default = 1)
-gpgpu_operand_collector_num_out_ports_int                    0 # number of collector unit in ports (default = 0)
-gpgpu_operand_collector_num_out_ports_tensor_core                    1 # number of collector unit in ports (default = 1)
-gpgpu_operand_collector_num_out_ports_mem                    1 # number of collector unit in ports (default = 1)
-gpgpu_operand_collector_num_out_ports_gen                    8 # number of collector unit in ports (default = 0)
-gpgpu_coalesce_arch                   75 # Coalescing arch (GT200 = 13, Fermi = 20)
-gpgpu_num_sched_per_core                    4 # Number of warp schedulers per core
-gpgpu_max_insn_issue_per_warp                    1 # Max number of instructions that can be issued per warp in one cycle by scheduler (either 1 or 2)
-gpgpu_dual_issue_diff_exec_units                    1 # should dual issue use two different execution unit resources (Default = 1)
-gpgpu_simt_core_sim_order                    1 # Select the simulation order of cores in a cluster (0=Fix, 1=Round-Robin)
-gpgpu_pipeline_widths 4,4,4,4,4,4,4,4,4,4,8,4,4 # Pipeline widths ID_OC_SP,ID_OC_DP,ID_OC_INT,ID_OC_SFU,ID_OC_MEM,OC_EX_SP,OC_EX_DP,OC_EX_INT,OC_EX_SFU,OC_EX_MEM,EX_WB,ID_OC_TENSOR_CORE,OC_EX_TENSOR_CORE
-gpgpu_tensor_core_avail                    1 # Tensor Core Available (default=0)
-gpgpu_num_sp_units                     4 # Number of SP units (default=1)
-gpgpu_num_dp_units                     4 # Number of DP units (default=0)
-gpgpu_num_int_units                    4 # Number of INT units (default=0)
-gpgpu_num_sfu_units                    4 # Number of SF units (default=1)
-gpgpu_num_tensor_core_units                    4 # Number of tensor_core units (default=1)
-gpgpu_num_mem_units                    1 # Number if ldst units (default=1) WARNING: not hooked up to anything
-gpgpu_scheduler                      lrr # Scheduler configuration: < lrr | gto | two_level_active > If two_level_active:<num_active_warps>:<inner_prioritization>:<outer_prioritization>For complete list of prioritization values see shader.h enum scheduler_prioritization_typeDefault: gto
-gpgpu_concurrent_kernel_sm                    0 # Support concurrent kernels on a SM (default = disabled)
-gpgpu_perfect_inst_const_cache                    1 # perfect inst and const cache mode, so all inst and const hits in the cache(default = disabled)
-gpgpu_inst_fetch_throughput                    4 # the number of fetched intruction per warp each cycle
-gpgpu_reg_file_port_throughput                    2 # the number ports of the register file
-specialized_unit_1         0,4,4,4,4,BRA # specialized unit config {<enabled>,<num_units>:<latency>:<initiation>,<ID_OC_SPEC>:<OC_EX_SPEC>,<NAME>}
-specialized_unit_2         0,4,4,4,4,BRA # specialized unit config {<enabled>,<num_units>:<latency>:<initiation>,<ID_OC_SPEC>:<OC_EX_SPEC>,<NAME>}
-specialized_unit_3         0,4,4,4,4,BRA # specialized unit config {<enabled>,<num_units>:<latency>:<initiation>,<ID_OC_SPEC>:<OC_EX_SPEC>,<NAME>}
-specialized_unit_4         0,4,4,4,4,BRA # specialized unit config {<enabled>,<num_units>:<latency>:<initiation>,<ID_OC_SPEC>:<OC_EX_SPEC>,<NAME>}
-specialized_unit_5         0,4,4,4,4,BRA # specialized unit config {<enabled>,<num_units>:<latency>:<initiation>,<ID_OC_SPEC>:<OC_EX_SPEC>,<NAME>}
-specialized_unit_6         0,4,4,4,4,BRA # specialized unit config {<enabled>,<num_units>:<latency>:<initiation>,<ID_OC_SPEC>:<OC_EX_SPEC>,<NAME>}
-specialized_unit_7         0,4,4,4,4,BRA # specialized unit config {<enabled>,<num_units>:<latency>:<initiation>,<ID_OC_SPEC>:<OC_EX_SPEC>,<NAME>}
-specialized_unit_8         0,4,4,4,4,BRA # specialized unit config {<enabled>,<num_units>:<latency>:<initiation>,<ID_OC_SPEC>:<OC_EX_SPEC>,<NAME>}
-gpgpu_perf_sim_memcpy                    1 # Fill the L2 cache on memcpy
-gpgpu_simple_dram_model                    0 # simple_dram_model with fixed latency and BW
-gpgpu_dram_scheduler                    1 # 0 = fifo, 1 = FR-FCFS (defaul)
-gpgpu_dram_partition_queues          64:64:64:64 # i2$:$2d:d2$:$2i
-l2_ideal                               0 # Use a ideal L2 cache that always hit
-gpgpu_cache:dl2     S:64:128:16,L:B:m:L:P,A:192:4,32:0,32 # unified banked L2 data cache config  {<nsets>:<bsize>:<assoc>,<rep>:<wr>:<alloc>:<wr_alloc>,<mshr>:<N>:<merge>,<mq>}
-gpgpu_cache:dl2_texture_only                    0 # L2 cache used for texture only
-gpgpu_n_mem                           12 # number of memory modules (e.g. memory controllers) in gpu
-gpgpu_n_sub_partition_per_mchannel                    2 # number of memory subpartition in each memory module
-gpgpu_n_mem_per_ctrlr                    1 # number of memory chips per memory controller
-gpgpu_memlatency_stat                   14 # track and display latency statistics 0x2 enables MC, 0x4 enables queue logs
-gpgpu_frfcfs_dram_sched_queue_size                   64 # 0 = unlimited (default); # entries per chip
-gpgpu_dram_return_queue_size                  192 # 0 = unlimited (default); # entries per chip
-gpgpu_dram_buswidth                    2 # default = 4 bytes (8 bytes per cycle at DDR)
-gpgpu_dram_burst_length                   16 # Burst length of each DRAM request (default = 4 data bus cycle)
-dram_data_command_freq_ratio                    4 # Frequency ratio between DRAM data bus and command bus (default = 2 times, i.e. DDR)
-gpgpu_dram_timing_opt nbk=16:CCD=4:RRD=12:RCD=24:RAS=55:RP=24:RC=78:CL=24:WL=8:CDLR=10:WR=24:nbkgrp=4:CCDL=6:RTPL=4 # DRAM timing parameters = {nbk:tCCD:tRRD:tRCD:tRAS:tRP:tRC:CL:WL:tCDLR:tWR:nbkgrp:tCCDL:tRTPL}
-gpgpu_l2_rop_latency                  194 # ROP queue latency (default 85)
-dram_latency                          96 # DRAM latency (default 30)
-dram_dual_bus_interface                    0 # dual_bus_interface (default = 0) 
-dram_bnk_indexing_policy                    0 # dram_bnk_indexing_policy (0 = normal indexing, 1 = Xoring with the higher bits) (Default = 0)
-dram_bnkgrp_indexing_policy                    1 # dram_bnkgrp_indexing_policy (0 = take higher bits, 1 = take lower bits) (Default = 0)
-dram_seperate_write_queue_enable                    0 # Seperate_Write_Queue_Enable
-dram_write_queue_size             32:28:16 # Write_Queue_Size
-dram_elimnate_rw_turnaround                    0 # elimnate_rw_turnaround i.e set tWTR and tRTW = 0
-icnt_flit_size                        40 # icnt_flit_size
-gpgpu_mem_addr_mapping dramid@8;00000000.00000000.00000000.00000000.0000RRRR.RRRRRRRR.RBBBCCCC.BCCSSSSS # mapping memory address to dram model {dramid@<start bit>;<memory address map>}
-gpgpu_mem_addr_test                    0 # run sweep test to check address mapping for aliased address
-gpgpu_mem_address_mask                    1 # 0 = old addressing mask, 1 = new addressing mask, 2 = new add. mask + flipped bank sel and chip sel bits
-gpgpu_memory_partition_indexing                    0 # 0 = no indexing, 1 = bitwise xoring, 2 = IPoly, 3 = custom indexing
-accelwattch_xml_file accelwattch_sass_sim.xml # AccelWattch XML file
-power_simulation_enabled                    0 # Turn on power simulator (1=On, 0=Off)
-power_per_cycle_dump                    0 # Dump detailed power output each cycle
-hw_perf_file_name            hw_perf.csv # Hardware Performance Statistics file
-hw_perf_bench_name                       # Kernel Name in Hardware Performance Statistics file
-power_simulation_mode                    0 # Switch performance counter input for power simulation (0=Sim, 1=HW, 2=HW-Sim Hybrid)
-dvfs_enabled                           0 # Turn on DVFS for power model
-aggregate_power_stats                    0 # Accumulate power across all kernels
-accelwattch_hybrid_perfsim_L1_RH                    0 # Get L1 Read Hits for Accelwattch-Hybrid from Accel-Sim
-accelwattch_hybrid_perfsim_L1_RM                    0 # Get L1 Read Misses for Accelwattch-Hybrid from Accel-Sim
-accelwattch_hybrid_perfsim_L1_WH                    0 # Get L1 Write Hits for Accelwattch-Hybrid from Accel-Sim
-accelwattch_hybrid_perfsim_L1_WM                    0 # Get L1 Write Misses for Accelwattch-Hybrid from Accel-Sim
-accelwattch_hybrid_perfsim_L2_RH                    0 # Get L2 Read Hits for Accelwattch-Hybrid from Accel-Sim
-accelwattch_hybrid_perfsim_L2_RM                    0 # Get L2 Read Misses for Accelwattch-Hybrid from Accel-Sim
-accelwattch_hybrid_perfsim_L2_WH                    0 # Get L2 Write Hits for Accelwattch-Hybrid from Accel-Sim
-accelwattch_hybrid_perfsim_L2_WM                    0 # Get L2 Write Misses for Accelwattch-Hybrid from Accel-Sim
-accelwattch_hybrid_perfsim_CC_ACC                    0 # Get Constant Cache Acesses for Accelwattch-Hybrid from Accel-Sim
-accelwattch_hybrid_perfsim_SHARED_ACC                    0 # Get Shared Memory Acesses for Accelwattch-Hybrid from Accel-Sim
-accelwattch_hybrid_perfsim_DRAM_RD                    0 # Get DRAM Reads for Accelwattch-Hybrid from Accel-Sim
-accelwattch_hybrid_perfsim_DRAM_WR                    0 # Get DRAM Writes for Accelwattch-Hybrid from Accel-Sim
-accelwattch_hybrid_perfsim_NOC                    0 # Get Interconnect Acesses for Accelwattch-Hybrid from Accel-Sim
-accelwattch_hybrid_perfsim_PIPE_DUTY                    0 # Get Pipeline Duty Cycle Acesses for Accelwattch-Hybrid from Accel-Sim
-accelwattch_hybrid_perfsim_NUM_SM_IDLE                    0 # Get Number of Idle SMs for Accelwattch-Hybrid from Accel-Sim
-accelwattch_hybrid_perfsim_CYCLES                    0 # Get Executed Cycles for Accelwattch-Hybrid from Accel-Sim
-accelwattch_hybrid_perfsim_VOLTAGE                    0 # Get Chip Voltage for Accelwattch-Hybrid from Accel-Sim
-power_trace_enabled                    0 # produce a file for the power trace (1=On, 0=Off)
-power_trace_zlevel                     6 # Compression level of the power trace output log (0=no comp, 9=highest)
-steady_power_levels_enabled                    0 # produce a file for the steady power levels (1=On, 0=Off)
-steady_state_definition                  8:4 # allowed deviation:number of samples
-gpgpu_max_cycle                        0 # terminates gpu simulation early (0 = no limit)
-gpgpu_max_insn                         0 # terminates gpu simulation early (0 = no limit)
-gpgpu_max_cta                          0 # terminates gpu simulation early (0 = no limit)
-gpgpu_max_completed_cta                    0 # terminates gpu simulation early (0 = no limit)
-gpgpu_runtime_stat                   500 # display runtime statistics such as dram utilization {<freq>:<flag>}
-liveness_message_freq                    1 # Minimum number of seconds between simulation liveness messages (0 = always print)
-gpgpu_compute_capability_major                    7 # Major compute capability version number
-gpgpu_compute_capability_minor                    5 # Minor compute capability version number
-gpgpu_flush_l1_cache                    1 # Flush L1 cache at the end of each kernel call
-gpgpu_flush_l2_cache                    0 # Flush L2 cache at the end of each kernel call
-gpgpu_deadlock_detect                    1 # Stop the simulation at deadlock (1=on (default), 0=off)
-gpgpu_ptx_instruction_classification                    0 # if enabled will classify ptx instruction types per kernel (Max 255 kernels now)
-gpgpu_ptx_sim_mode                     0 # Select between Performance (default) or Functional simulation (1)
-gpgpu_clock_domains 1365:1365:1365:3500.5 # Clock Domain Frequencies in MhZ {<Core Clock>:<ICNT Clock>:<L2 Clock>:<DRAM Clock>}
-gpgpu_max_concurrent_kernel                    8 # maximum kernels that can run concurrently on GPU
-gpgpu_cflog_interval                    0 # Interval between each snapshot in control flow logger
-visualizer_enabled                     0 # Turn on visualizer output (1=On, 0=Off)
-visualizer_outputfile                 NULL # Specifies the output log file for visualizer
-visualizer_zlevel                      6 # Compression level of the visualizer output log (0=no comp, 9=highest)
-gpgpu_stack_size_limit                 1024 # GPU thread stack size
-gpgpu_heap_size_limit              8388608 # GPU malloc heap size 
-gpgpu_runtime_sync_depth_limit                    2 # GPU device runtime synchronize depth
-gpgpu_runtime_pending_launch_count_limit                 2048 # GPU device runtime pending launch count
-trace_enabled                          0 # Turn on traces
-trace_components                    none # comma seperated list of traces to enable. Complete list found in trace_streams.tup. Default none
-trace_sampling_core                    0 # The core which is printed using CORE_DPRINTF. Default 0
-trace_sampling_memory_partition                   -1 # The memory partition which is printed using MEMPART_DPRINTF. Default -1 (i.e. all)
-enable_ptx_file_line_stats                    1 # Turn on PTX source line statistic profiling. (1 = On)
-ptx_line_stats_filename gpgpu_inst_stats.txt # Output file for PTX source line statistics.
-gpgpu_kernel_launch_latency                 5000 # Kernel launch latency in cycles. Default: 0
-gpgpu_cdp_enabled                      0 # Turn on CDP
-gpgpu_TB_launch_latency                    0 # thread block launch latency in cycles. Default: 0
DRAM Timing Options:
nbk                                    16 # number of banks
CCD                                     4 # column to column delay
RRD                                    12 # minimal delay between activation of rows in different banks
RCD                                    24 # row to column delacfe582cc3e2a9928f2ab4e9246d051d9  /benchmarks/graph_benchmarks_original/pannotia/mis/mis
Extracting PTX file and ptxas options    1: mis.1.sm_75.ptx -arch=sm_75
y
RAS                                    55 # time needed to activate row
RP                                     24 # time needed to precharge (deactivate) row
RC                                     78 # row cycle time
CDLR                                   10 # switching from write to read (changes tWTR)
WR                                     24 # last data-in to row precharge
CL                                     24 # CAS latency
WL                                      8 # Write latency
nbkgrp                                  4 # number of bank groups
CCDL                                    6 # column to column delay between accesses to different bank groups
RTPL                                    4 # read to precharge delay between accesses to different bank groups
Total number of memory sub partition = 24
addr_dec_mask[CHIP]  = 0000000000000000 	high:64 low:0
addr_dec_mask[BK]    = 0000000000007080 	high:15 low:7
addr_dec_mask[ROW]   = 000000000fff8000 	high:28 low:15
addr_dec_mask[COL]   = 0000000000000f7f 	high:12 low:0
addr_dec_mask[BURST] = 000000000000001f 	high:5 low:0
sub_partition_id_mask = 0000000000000080
GPGPU-Sim uArch: clock freqs: 1365000000.000000:1365000000.000000:1365000000.000000:3500500000.000000
GPGPU-Sim uArch: clock periods: 0.00000000073260073260:0.00000000073260073260:0.00000000073260073260:0.00000000028567347522
*** Initializing Memory Statistics ***
GPGPU-Sim uArch: performance model initialization complete.
self exe links to: /benchmarks/graph_benchmarks_original/pannotia/mis/mis
self exe links to: /benchmarks/graph_benchmarks_original/pannotia/mis/mis
11.0
GPGPU-Sim PTX: __cudaRegisterFatBinary, fat_cubin_handle = 1, filename=default
self exe links to: /benchmarks/graph_benchmarks_original/pannotia/mis/mis
Running md5sum using "md5sum /benchmarks/graph_benchmarks_original/pannotia/mis/mis "
self exe links to: /benchmarks/graph_benchmarks_original/pannotia/mis/mis
Extracting specific PTX file named mis.1.sm_75.ptx 
GPGPU-Sim PTX: __cudaRegisterFunction _Z4mis3PiS_i : hostFun 0x0x561d50e027c0, fat_cubin_handle = 1
GPGPU-Sim PTX: Parsing mis.1.sm_75.ptx
GPGPU-Sim PTX: instruction assembly for function '_Z4initPiS_S_ii'...   done.
GPGPU-Sim PTX: instruction assembly for function '_Z4mis1PiS_S_S_S_S_S_ii'...   done.
GPGPU-Sim PTX: instruction assembly for function '_Z4mis2PiS_S_S_S_S_S_ii'...   done.
GPGPU-Sim PTX: instruction assembly for function '_Z4mis3PiS_i'...   done.
GPGPU-Sim PTX: finished parsing EMBEDDED .ptx file mis.1.sm_75.ptx
GPGPU-Sim PTX: loading globals with explicit initializers... 
GPGPU-Sim PTX: finished loading globals (0 bytes total).
GPGPU-Sim PTX: loading constants with explicit initializers...  done.
GPGPU-Sim PTX: Loading PTXInfo from mis.1.sm_75.ptx
GPGPU-Sim PTX: Kernel '_Z4mis3PiS_i' : regs=8, lmem=0, smem=0, cmem=372
GPGPU-Sim PTX: Kernel '_Z4mis2PiS_S_S_S_S_S_ii' : regs=22, lmem=0, smem=0, cmem=416
GPGPU-Sim PTX: Kernel '_Z4mis1PiS_S_S_S_S_S_ii' : regs=48, lmem=0, smem=0, cmem=416
GPGPU-Sim PTX: Kernel '_Z4initPiS_S_ii' : regs=12, lmem=0, smem=0, cmem=384
GPGPU-Sim PTX: __cudaRegisterFunction _Z4mis2PiS_S_S_S_S_S_ii : hostFun 0x0x561d50e024c0, fat_cubin_handle = 1
GPGPU-Sim PTX: __cudaRegisterFunction _Z4mis1PiS_S_S_S_S_S_ii : hostFun 0x0x561d50e02300, fat_cubin_handle = 1
GPGPU-Sim PTX: __cudaRegisterFunction _Z4initPiS_S_ii : hostFun 0x0x561d50e02680, fat_cubin_handle = 1
Opening file: ../datasets/coAuthorsDBLP.graph
This is an undirected graph
Read from file: num_nodes = 299067, num_edges = 1955352
GPGPU-Sim PTX: Setting up arguments for 8 bytes starting at 0x7fff175f0228..
GPGPU-Sim PTX: Setting up arguments for 8 bytes starting at 0x7fff175f0220..
GPGPU-Sim PTX: Setting up arguments for 8 bytes starting at 0x7fff175f0218..
GPGPU-Sim PTX: Setting up arguments for 4 bytes starting at 0x7fff175f0214..
GPGPU-Sim PTX: Setting up arguments for 4 bytes starting at 0x7fff175f0210..

GPGPU-Sim PTX: cudaLaunch for 0x0x561d50e02680 (mode=performance simulation) on stream 0
GPGPU-Sim PTX: finding reconvergence points for '_Z4initPiS_S_ii'...
GPGPU-Sim PTX: Finding dominators for '_Z4initPiS_S_ii'...
GPGPU-Sim PTX: Finding immediate dominators for '_Z4initPiS_S_ii'...
GPGPU-Sim PTX: Finding postdominators for '_Z4initPiS_S_ii'...
GPGPU-Sim PTX: Finding immediate postdominators for '_Z4initPiS_S_ii'...
GPGPU-Sim PTX: pre-decoding instructions for '_Z4initPiS_S_ii'...
GPGPU-Sim PTX: reconvergence points for _Z4initPiS_S_ii...
GPGPU-Sim PTX:  1 (potential) branch divergence @  PC=0x048 (mis.1.sm_75.ptx:37) @%p1 bra BB0_2;
GPGPU-Sim PTX:    immediate post dominator      @  PC=0x0b0 (mis.1.sm_75.ptx:53) ret;
GPGPU-Sim PTX: ... end of reconvergence points for _Z4initPiS_S_ii
GPGPU-Sim PTX: ... done pre-decoding instructions for '_Z4initPiS_S_ii'.
GPGPU-Sim PTX: pushing kernel '_Z4initPiS_S_ii' to stream 0, gridDim= (2337,1,1) blockDim = (128,1,1) 
GPGPU-Sim uArch: Shader 0 bind to kernel 1 '_Z4initPiS_S_ii'
GPGPU-Sim uArch: CTA/core = 8, limited by: threads
GPGPU-Sim: Reconfigure L1 cache to 64KB
GPGPU-Sim uArch: Shader 1 bind to kernel 1 '_Z4initPiS_S_ii'
GPGPU-Sim uArch: Shader 2 bind to kernel 1 '_Z4initPiS_S_ii'
GPGPU-Sim uArch: Shader 3 bind to kernel 1 '_Z4initPiS_S_ii'
GPGPU-Sim uArch: Shader 4 bind to kernel 1 '_Z4initPiS_S_ii'
GPGPU-Sim uArch: Shader 5 bind to kernel 1 '_Z4initPiS_S_ii'
GPGPU-Sim uArch: Shader 6 bind to kernel 1 '_Z4initPiS_S_ii'
GPGPU-Sim uArch: Shader 7 bind to kernel 1 '_Z4initPiS_S_ii'
GPGPU-Sim uArch: Shader 8 bind to kernel 1 '_Z4initPiS_S_ii'
GPGPU-Sim uArch: Shader 9 bind to kernel 1 '_Z4initPiS_S_ii'
GPGPU-Sim uArch: Shader 10 bind to kernel 1 '_Z4initPiS_S_ii'
GPGPU-Sim uArch: Shader 11 bind to kernel 1 '_Z4initPiS_S_ii'
GPGPU-Sim uArch: Shader 12 bind to kernel 1 '_Z4initPiS_S_ii'
GPGPU-Sim uArch: Shader 13 bind to kernel 1 '_Z4initPiS_S_ii'
GPGPU-Sim uArch: Shader 14 bind to kernel 1 '_Z4initPiS_S_ii'
GPGPU-Sim uArch: Shader 15 bind to kernel 1 '_Z4initPiS_S_ii'
GPGPU-Sim uArch: Shader 16 bind to kernel 1 '_Z4initPiS_S_ii'
GPGPU-Sim uArch: Shader 17 bind to kernel 1 '_Z4initPiS_S_ii'
GPGPU-Sim uArch: Shader 18 bind to kernel 1 '_Z4initPiS_S_ii'
GPGPU-Sim uArch: Shader 19 bind to kernel 1 '_Z4initPiS_S_ii'
GPGPU-Sim uArch: Shader 20 bind to kernel 1 '_Z4initPiS_S_ii'
GPGPU-Sim uArch: Shader 21 bind to kernel 1 '_Z4initPiS_S_ii'
GPGPU-Sim uArch: Shader 22 bind to kernel 1 '_Z4initPiS_S_ii'
GPGPU-Sim uArch: Shader 23 bind to kernel 1 '_Z4initPiS_S_ii'
GPGPU-Sim uArch: Shader 24 bind to kernel 1 '_Z4initPiS_S_ii'
GPGPU-Sim uArch: Shader 25 bind to kernel 1 '_Z4initPiS_S_ii'
GPGPU-Sim uArch: Shader 26 bind to kernel 1 '_Z4initPiS_S_ii'
GPGPU-Sim uArch: Shader 27 bind to kernel 1 '_Z4initPiS_S_ii'
GPGPU-Sim uArch: Shader 28 bind to kernel 1 '_Z4initPiS_S_ii'
GPGPU-Sim uArch: Shader 29 bind to kernel 1 '_Z4initPiS_S_ii'
Destroy streams for kernel 1: size 0
kernel_name = _Z4initPiS_S_ii 
kernel_launch_uid = 1 
gpu_sim_cycle = 13381
gpu_sim_insn = 6580233
gpu_ipc =     491.7594
gpu_tot_sim_cycle = 13381
gpu_tot_sim_insn = 6580233
gpu_tot_ipc =     491.7594
gpu_tot_issued_cta = 2337
gpu_occupancy = 91.5376% 
gpu_tot_occupancy = 91.5376% 
max_total_param_size = 0
gpu_stall_dramfull = 97
gpu_stall_icnt2sh    = 0
partiton_level_parallism =       8.3814
partiton_level_parallism_total  =       8.3814
partiton_level_parallism_util =      15.0580
partiton_level_parallism_util_total  =      15.0580
L2_BW  =     366.1011 GB/Sec
L2_BW_total  =     366.1011 GB/Sec
gpu_total_sim_rate=263209

========= Core cache stats =========
L1I_cache:
	L1I_total_cache_accesses = 0
	L1I_total_cache_misses = 0
	L1I_total_cache_pending_hits = 0
	L1I_total_cache_reservation_fails = 0
L1D_cache:
	L1D_cache_core[0]: Access = 3600, Miss = 3600, Miss_rate = 1.000, Pending_hits = 0, Reservation_fails = 3854
	L1D_cache_core[1]: Access = 3888, Miss = 3888, Miss_rate = 1.000, Pending_hits = 0, Reservation_fails = 4268
	L1D_cache_core[2]: Access = 3696, Miss = 3696, Miss_rate = 1.000, Pending_hits = 0, Reservation_fails = 4220
	L1D_cache_core[3]: Access = 3408, Miss = 3408, Miss_rate = 1.000, Pending_hits = 0, Reservation_fails = 4008
	L1D_cache_core[4]: Access = 4032, Miss = 4032, Miss_rate = 1.000, Pending_hits = 0, Reservation_fails = 4274
	L1D_cache_core[5]: Access = 3408, Miss = 3408, Miss_rate = 1.000, Pending_hits = 0, Reservation_fails = 3925
	L1D_cache_core[6]: Access = 3600, Miss = 3600, Miss_rate = 1.000, Pending_hits = 0, Reservation_fails = 3878
	L1D_cache_core[7]: Access = 3840, Miss = 3840, Miss_rate = 1.000, Pending_hits = 0, Reservation_fails = 3958
	L1D_cache_core[8]: Access = 3792, Miss = 3792, Miss_rate = 1.000, Pending_hits = 0, Reservation_fails = 3454
	L1D_cache_core[9]: Access = 3792, Miss = 3792, Miss_rate = 1.000, Pending_hits = 0, Reservation_fails = 4550
	L1D_cache_core[10]: Access = 3984, Miss = 3984, Miss_rate = 1.000, Pending_hits = 0, Reservation_fails = 4412
	L1D_cache_core[11]: Access = 3744, Miss = 3744, Miss_rate = 1.000, Pending_hits = 0, Reservation_fails = 3488
	L1D_cache_core[12]: Access = 4080, Miss = 4080, Miss_rate = 1.000, Pending_hits = 0, Reservation_fails = 3686
	L1D_cache_core[13]: Access = 3840, Miss = 3840, Miss_rate = 1.000, Pending_hits = 0, Reservation_fails = 3777
	L1D_cache_core[14]: Access = 3264, Miss = 3264, Miss_rate = 1.000, Pending_hits = 0, Reservation_fails = 4001
	L1D_cache_core[15]: Access = 3888, Miss = 3888, Miss_rate = 1.000, Pending_hits = 0, Reservation_fails = 4186
	L1D_cache_core[16]: Access = 3744, Miss = 3744, Miss_rate = 1.000, Pending_hits = 0, Reservation_fails = 3706
	L1D_cache_core[17]: Access = 3552, Miss = 3552, Miss_rate = 1.000, Pending_hits = 0, Reservation_fails = 2670
	L1D_cache_core[18]: Access = 3552, Miss = 3552, Miss_rate = 1.000, Pending_hits = 0, Reservation_fails = 3669
	L1D_cache_core[19]: Access = 3696, Miss = 3696, Miss_rate = 1.000, Pending_hits = 0, Reservation_fails = 4195
	L1D_cache_core[20]: Access = 3600, Miss = 3600, Miss_rate = 1.000, Pending_hits = 0, Reservation_fails = 3697
	L1D_cache_core[21]: Access = 3888, Miss = 3888, Miss_rate = 1.000, Pending_hits = 0, Reservation_fails = 4332
	L1D_cache_core[22]: Access = 3744, Miss = 3744, Miss_rate = 1.000, Pending_hits = 0, Reservation_fails = 2980
	L1D_cache_core[23]: Access = 3984, Miss = 3984, Miss_rate = 1.000, Pending_hits = 0, Reservation_fails = 3999
	L1D_cache_core[24]: Access = 3840, Miss = 3840, Miss_rate = 1.000, Pending_hits = 0, Reservation_fails = 4126
	L1D_cache_core[25]: Access = 4200, Miss = 4200, Miss_rate = 1.000, Pending_hits = 0, Reservation_fails = 4158
	L1D_cache_core[26]: Access = 3552, Miss = 3552, Miss_rate = 1.000, Pending_hits = 0, Reservation_fails = 4295
	L1D_cache_core[27]: Access = 3456, Miss = 3456, Miss_rate = 1.000, Pending_hits = 0, Reservation_fails = 4060
	L1D_cache_core[28]: Access = 3552, Miss = 3552, Miss_rate = 1.000, Pending_hits = 0, Reservation_fails = 3846
	L1D_cache_core[29]: Access = 3936, Miss = 3936, Miss_rate = 1.000, Pending_hits = 0, Reservation_fails = 3728
	L1D_total_cache_accesses = 112152
	L1D_total_cache_misses = 112152
	L1D_total_cache_miss_rate = 1.0000
	L1D_total_cache_pending_hits = 0
	L1D_total_cache_reservation_fails = 117400
	L1D_cache_data_port_util = 0.000
	L1D_cache_fill_port_util = 0.000
L1C_cache:
	L1C_total_cache_accesses = 0
	L1C_total_cache_misses = 0
	L1C_total_cache_pending_hits = 0
	L1C_total_cache_reservation_fails = 0
L1T_cache:
	L1T_total_cache_accesses = 0
	L1T_total_cache_misses = 0
	L1T_total_cache_pending_hits = 0
	L1T_total_cache_reservation_fails = 0

Total_core_cache_stats:
	Total_core_cache_stats_breakdown[GLOBAL_ACC_R][HIT] = 0
	Total_core_cache_stats_breakdown[GLOBAL_ACC_R][HIT_RESERVED] = 0
	Total_core_cache_stats_breakdown[GLOBAL_ACC_R][MISS] = 0
	Total_core_cache_stats_breakdown[GLOBAL_ACC_R][RESERVATION_FAIL] = 0
	Total_core_cache_stats_breakdown[GLOBAL_ACC_R][SECTOR_MISS] = 0
	Total_core_cache_stats_breakdown[GLOBAL_ACC_R][MSHR_HIT] = 0
	Total_core_cache_stats_breakdown[LOCAL_ACC_R][HIT] = 0
	Total_core_cache_stats_breakdown[LOCAL_ACC_R][HIT_RESERVED] = 0
	Total_core_cache_stats_breakdown[LOCAL_ACC_R][MISS] = 0
	Total_core_cache_stats_breakdown[LOCAL_ACC_R][RESERVATION_FAIL] = 0
	Total_core_cache_stats_breakdown[LOCAL_ACC_R][SECTOR_MISS] = 0
	Total_core_cache_stats_breakdown[LOCAL_ACC_R][MSHR_HIT] = 0
	Total_core_cache_stats_breakdown[CONST_ACC_R][HIT] = 0
	Total_core_cache_stats_breakdown[CONST_ACC_R][HIT_RESERVED] = 0
	Total_core_cache_stats_breakdown[CONST_ACC_R][MISS] = 0
	Total_core_cache_stats_breakdown[CONST_ACC_R][RESERVATION_FAIL] = 0
	Total_core_cache_stats_breakdown[CONST_ACC_R][SECTOR_MISS] = 0
	Total_core_cache_stats_breakdown[CONST_ACC_R][MSHR_HIT] = 0
	Total_core_cache_stats_breakdown[TEXTURE_ACC_R][HIT] = 0
	Total_core_cache_stats_breakdown[TEXTURE_ACC_R][HIT_RESERVED] = 0
	Total_core_cache_stats_breakdown[TEXTURE_ACC_R][MISS] = 0
	Total_core_cache_stats_breakdown[TEXTURE_ACC_R][RESERVATION_FAIL] = 0
	Total_core_cache_stats_breakdown[TEXTURE_ACC_R][SECTOR_MISS] = 0
	Total_core_cache_stats_breakdown[TEXTURE_ACC_R][MSHR_HIT] = 0
	Total_core_cache_stats_breakdown[GLOBAL_ACC_W][HIT] = 0
	Total_core_cache_stats_breakdown[GLOBAL_ACC_W][HIT_RESERVED] = 0
	Total_core_cache_stats_breakdown[GLOBAL_ACC_W][MISS] = 28038
	Total_core_cache_stats_breakdown[GLOBAL_ACC_W][RESERVATION_FAIL] = 117400
	Total_core_cache_stats_breakdown[GLOBAL_ACC_W][SECTOR_MISS] = 84114
	Total_core_cache_stats_breakdown[GLOBAL_ACC_W][MSHR_HIT] = 0
	Total_core_cache_stats_breakdown[LOCAL_ACC_W][HIT] = 0
	Total_core_cache_stats_breakdown[LOCAL_ACC_W][HIT_RESERVED] = 0
	Total_core_cache_stats_breakdown[LOCAL_ACC_W][MISS] = 0
	Total_core_cache_stats_breakdown[LOCAL_ACC_W][RESERVATION_FAIL] = 0
	Total_core_cache_stats_breakdown[LOCAL_ACC_W][SECTOR_MISS] = 0
	Total_core_cache_stats_breakdown[LOCAL_ACC_W][MSHR_HIT] = 0
	Total_core_cache_stats_breakdown[L1_WRBK_ACC][HIT] = 0
	Total_core_cache_stats_breakdown[L1_WRBK_ACC][HIT_RESERVED] = 0
	Total_core_cache_stats_breakdown[L1_WRBK_ACC][MISS] = 0
	Total_core_cache_stats_breakdown[L1_WRBK_ACC][RESERVATION_FAIL] = 0
	Total_core_cache_stats_breakdown[L1_WRBK_ACC][SECTOR_MISS] = 0
	Total_core_cache_stats_breakdown[L1_WRBK_ACC][MSHR_HIT] = 0
	Total_core_cache_stats_breakdown[L2_WRBK_ACC][HIT] = 0
	Total_core_cache_stats_breakdown[L2_WRBK_ACC][HIT_RESERVED] = 0
	Total_core_cache_stats_breakdown[L2_WRBK_ACC][MISS] = 0
	Total_core_cache_stats_breakdown[L2_WRBK_ACC][RESERVATION_FAIL] = 0
	Total_core_cache_stats_breakdown[L2_WRBK_ACC][SECTOR_MISS] = 0
	Total_core_cache_stats_breakdown[L2_WRBK_ACC][MSHR_HIT] = 0
	Total_core_cache_stats_breakdown[INST_ACC_R][HIT] = 0
	Total_core_cache_stats_breakdown[INST_ACC_R][HIT_RESERVED] = 0
	Total_core_cache_stats_breakdown[INST_ACC_R][MISS] = 0
	Total_core_cache_stats_breakdown[INST_ACC_R][RESERVATION_FAIL] = 0
	Total_core_cache_stats_breakdown[INST_ACC_R][SECTOR_MISS] = 0
	Total_core_cache_stats_breakdown[INST_ACC_R][MSHR_HIT] = 0
	Total_core_cache_stats_breakdown[L1_WR_ALLOC_R][HIT] = 0
	Total_core_cache_stats_breakdown[L1_WR_ALLOC_R][HIT_RESERVED] = 0
	Total_core_cache_stats_breakdown[L1_WR_ALLOC_R][MISS] = 0
	Total_core_cache_stats_breakdown[L1_WR_ALLOC_R][RESERVATION_FAIL] = 0
	Total_core_cache_stats_breakdown[L1_WR_ALLOC_R][SECTOR_MISS] = 0
	Total_core_cache_stats_breakdown[L1_WR_ALLOC_R][MSHR_HIT] = 0
	Total_core_cache_stats_breakdown[L2_WR_ALLOC_R][HIT] = 0
	Total_core_cache_stats_breakdown[L2_WR_ALLOC_R][HIT_RESERVED] = 0
	Total_core_cache_stats_breakdown[L2_WR_ALLOC_R][MISS] = 0
	Total_core_cache_stats_breakdown[L2_WR_ALLOC_R][RESERVATION_FAIL] = 0
	Total_core_cache_stats_breakdown[L2_WR_ALLOC_R][SECTOR_MISS] = 0
	Total_core_cache_stats_breakdown[L2_WR_ALLOC_R][MSHR_HIT] = 0
	Total_core_cache_stats_breakdown[GLOBAL_ACC_W][TOTAL_ACCESS] = 112152

Total_core_cache_fail_stats:
	Total_core_cache_fail_stats_breakdown[GLOBAL_ACC_W][MISS_QUEUE_FULL] = 117400
ctas_completed 2337, Shader 0 warp_id issue ditsribution:
warp_id:
0, 1, 2, 3, 4, 5, 6, 7, 8, 9, 10, 11, 12, 13, 14, 15, 16, 17, 18, 19, 20, 21, 22, 23, 24, 25, 26, 27, 28, 29, 30, 31, 
distro:
230, 230, 230, 230, 230, 230, 230, 230, 207, 207, 207, 207, 207, 207, 207, 207, 207, 207, 207, 207, 230, 230, 230, 230, 207, 207, 207, 207, 207, 207, 207, 207, 
gpgpu_n_tot_thrd_icount = 6879360
gpgpu_n_tot_w_icount = 214980
gpgpu_n_stall_shd_mem = 27549
gpgpu_n_mem_read_local = 0
gpgpu_n_mem_write_local = 0
gpgpu_n_mem_read_global = 0
gpgpu_n_mem_write_global = 112152
gpgpu_n_mem_texture = 0
gpgpu_n_mem_const = 0
gpgpu_n_load_insn  = 0
gpgpu_n_store_insn = 897201
gpgpu_n_shmem_insn = 0
gpgpu_n_sstarr_insn = 0
gpgpu_n_tex_insn = 0
gpgpu_n_const_mem_insn = 0
gpgpu_n_param_mem_insn = 1196544
gpgpu_n_shmem_bkconflict = 0
gpgpu_n_cache_bkconflict = 0
gpgpu_n_intrawarp_mshr_merge = 0
gpgpu_n_cmem_portconflict = 0
gpgpu_stall_shd_mem[c_mem][resource_stall] = 0
gpgpu_stall_shd_mem[s_mem][bk_conf] = 0
gpgpu_stall_shd_mem[gl_mem][resource_stall] = 27549
gpgpu_stall_shd_mem[gl_mem][coal_stall] = 0
gpgpu_stall_shd_mem[gl_mem][data_port_stall] = 0
gpu_reg_bank_conflict_stalls = 0
Warp Occupancy Distribution:
Stall:204246	W0_Idle:427369	W0_Scoreboard:144709	W1:0	W2:0	W3:0	W4:0	W5:0	W6:0	W7:0	W8:0	W9:0	W10:0	W11:0	W12:0	W13:0	W14:0	W15:0	W16:0	W17:0	W18:0	W19:0	W20:0	W21:0	W22:0	W23:0	W24:0	W25:0	W26:0	W27:12	W28:0	W29:0	W30:0	W31:0	W32:214968
single_issue_nums: WS0:53751	WS1:53751	WS2:53739	WS3:53739	
dual_issue_nums: WS0:0	WS1:0	WS2:0	WS3:0	
traffic_breakdown_coretomem[GLOBAL_ACC_W] = 4486080 {40:112152,}
traffic_breakdown_memtocore[GLOBAL_ACC_W] = 897216 {8:112152,}
maxmflatency = 923 
max_icnt2mem_latency = 607 
maxmrqlatency = 651 
max_icnt2sh_latency = 234 
averagemflatency = 434 
avg_icnt2mem_latency = 207 
avg_mrq_latency = 111 
avg_icnt2sh_latency = 37 
mrq_lat_table:662 	39 	72 	99 	170 	287 	424 	430 	376 	23 	0 	0 	0 	0 	0 	0 	0 	0 	0 	0 	0 	0 	0 	0 	0 	0 	0 	0 	0 	0 	0 	0 	
dq_lat_table:0 	0 	0 	0 	0 	0 	0 	0 	0 	0 	0 	0 	0 	0 	0 	0 	0 	0 	0 	0 	0 	0 	0 	0 	0 	0 	0 	0 	0 	0 	0 	0 	
mf_lat_table:0 	0 	0 	0 	0 	0 	0 	3848 	80866 	27438 	0 	0 	0 	0 	0 	0 	0 	0 	0 	0 	0 	0 	0 	0 	0 	0 	0 	0 	0 	0 	0 	0 	
icnt2mem_lat_table:0 	0 	0 	0 	0 	9124 	20524 	49668 	32680 	156 	0 	0 	0 	0 	0 	0 	0 	0 	0 	0 	0 	0 	0 	0 	
icnt2sh_lat_table:0 	20567 	17190 	17090 	15812 	18163 	17257 	6073 	0 	0 	0 	0 	0 	0 	0 	0 	0 	0 	0 	0 	0 	0 	0 	0 	
mf_lat_pw_table:0 	0 	0 	0 	0 	0 	0 	1 	14 	1 	0 	0 	0 	0 	0 	0 	0 	0 	0 	0 	0 	0 	0 	0 	0 	0 	0 	0 	0 	0 	0 	0 	
maximum concurrent accesses to same row:
dram[0]:        16         9        15        14        16        10         4         5         0         0         0         0         0         0         0         0 
dram[1]:        14        15        16        14        16        12         4         4         0         0         0         0         0         0         0         0 
dram[2]:        13        11        13        13        16        13         3         1         0         0         0         0         0         0         0         0 
dram[3]:        11        12        15        16        16        16         4         4         0         0         0         0         0         0         0         0 
dram[4]:        13        13        12        14        16        16         5         4         0         0         0         0         0         0         0         0 
dram[5]:        16        16        14        16        15        15         3         3         0         0         0         0         0         0         0         0 
dram[6]:        14        16        16        16        16        10         3         5         0         0         0         0         0         0         0         0 
dram[7]:         9        12        14        12        16        12         3         4         0         0         0         0         0         0         0         0 
dram[8]:        14         9        14        14        16        16         2         3         0         0         0         0         0         0         0         0 
dram[9]:        14        15        15        13        12        16         1         2         0         0         0         0         0         0         0         0 
dram[10]:        12        13        14        14        15         9         7         7         0         0         0         0         0         0         0         0 
dram[11]:        12        10        15        16        15        14         5         3         0         1         0         0         0         0         0         0 
maximum service time to same row:
dram[0]:     12051     12053     11885     11892     12584     12594     12643     12661     13130     13144         0         0         0         0     12431     12447 
dram[1]:     12106     12094     11904     11913     12572     12579     12710     12723     13218     13218         0         0         0         0     12415     12431 
dram[2]:     12053     12056     11994     11997     12507     12510     12672     12650     13034     13034         0         0         0         0     12452     12455 
dram[3]:     12043     12075     11993     11994     12520     12515     12654     12685     13080     13065         0         0         0         0     12462     12472 
dram[4]:     12027     12059     11940     11945     12603     12613     12679     12827     13284     13284         0         0         0         0     12416     12416 
dram[5]:     12013     12044     11971     11981     12520     12507     12780     12785     13149     13158         0         0         0         0     12407     12439 
dram[6]:     12015     12005     11926     11944     12507     12503     12776     12733     13089     13084         0         0         0         0     12414     12425 
dram[7]:     12137     12115     11929     11947     12537     12528     12757     12767     13104     13094         0         0         0         0     12438     12459 
dram[8]:     12070     12083     11908     11934     12525     12535     12726     12682     13216     13205         0         0         0         0     12444     12462 
dram[9]:     12013     12030     11910     11925     12517     12530     12722     12733     13255     13256         0         0         0         0     12460     12466 
dram[10]:     12041     12050     11899     11903     12459     12478     12758     12740     13154     13172         0         0         0         0     12425     12446 
dram[11]:     12033     12036     11909     11913     12468     12497     12694     12722     13167     13168         0         0         0         0     12455     12469 
average row accesses per activate:
dram[0]:  6.400000  4.571429  8.000000  6.400000 10.666667 13.000000  5.500000  4.500000  3.000000  3.000000      -nan      -nan      -nan      -nan  3.000000  3.000000 
dram[1]:  5.000000  3.888889 10.666667  6.400000  9.000000 12.500000  4.500000  4.000000  2.000000  2.000000      -nan      -nan      -nan      -nan  3.000000  3.000000 
dram[2]:  4.571429  4.714286  8.000000  4.571429  9.666667 13.500000  5.500000  3.500000  4.000000  4.000000      -nan      -nan      -nan      -nan  3.000000  3.000000 
dram[3]:  4.571429  3.555556  6.400000 10.666667  9.333333  7.666667  4.500000  4.500000  4.000000  4.000000      -nan      -nan      -nan      -nan  3.000000  3.000000 
dram[4]:  3.666667  3.666667  8.000000  6.400000  9.333333 13.000000  5.500000  3.500000  1.000000  1.000000      -nan      -nan      -nan      -nan  3.000000  3.000000 
dram[5]:  5.333333  4.125000  6.400000 10.666667  6.000000  7.250000  4.500000  4.000000  3.000000  3.000000      -nan      -nan      -nan      -nan  3.000000  3.000000 
dram[6]:  4.714286  8.250000 16.000000 10.666667 11.000000 12.000000  4.000000  4.000000  4.000000  3.000000      -nan      -nan      -nan      -nan  3.000000  3.000000 
dram[7]:  4.500000  4.375000  6.400000  8.000000  9.000000 11.000000  5.000000  4.500000  3.000000  3.000000      -nan      -nan      -nan      -nan  3.000000  3.000000 
dram[8]:  4.250000  4.375000  5.333333  4.000000  9.333333  9.000000  4.500000  5.000000  3.000000  3.000000      -nan      -nan      -nan      -nan  3.000000  3.000000 
dram[9]:  3.777778  3.777778  8.000000  8.000000 14.000000  9.333333  2.000000  2.250000  2.000000  2.000000      -nan      -nan      -nan      -nan  3.000000  3.000000 
dram[10]:  3.600000  4.375000  8.000000  6.400000  8.666667 10.500000  5.000000  4.500000  3.000000  3.000000      -nan      -nan      -nan      -nan  3.000000  3.000000 
dram[11]:  4.375000  2.833333  5.333333 10.666667  7.000000  6.750000  3.000000  2.750000  2.000000  1.000000      -nan      -nan      -nan      -nan  3.000000  3.000000 
average row locality = 2582/469 = 5.505331
number of total memory accesses made:
dram[0]:         0         0         0         0         0         0         0         0         0         0         0         0         0         0         0         0 
dram[1]:         0         0         0         0         0         0         0         0         0         0         0         0         0         0         0         0 
dram[2]:         0         0         0         0         0         0         0         0         0         0         0         0         0         0         0         0 
dram[3]:         0         0         0         0         0         0         0         0         0         0         0         0         0         0         0         0 
dram[4]:         0         0         0         0         0         0         0         0         0         0         0         0         0         0         0         0 
dram[5]:         0         0         0         0         0         0         0         0         0         0         0         0         0         0         0         0 
dram[6]:         0         0         0         0         0         0         0         0         0         0         0         0         0         0         0         0 
dram[7]:         0         0         0         0         0         0         0         0         0         0         0         0         0         0         0         0 
dram[8]:         0         0         0         0         0         0         0         0         0         0         0         0         0         0         0         0 
dram[9]:         0         0         0         0         0         0         0         0         0         0         0         0         0         0         0         0 
dram[10]:         0         0         0         0         0         0         0         0         0         0         0         0         0         0         0         0 
dram[11]:         0         0         0         0         0         0         0         0         0         0         0         0         0         0         0         0 
total accesses: 0
min_bank_accesses = 0!
min_chip_accesses = 0!
number of total read accesses:
dram[0]:         0         0         0         0         0         0         0         0         0         0         0         0         0         0         0         0 
dram[1]:         0         0         0         0         0         0         0         0         0         0         0         0         0         0         0         0 
dram[2]:         0         0         0         0         0         0         0         0         0         0         0         0         0         0         0         0 
dram[3]:         0         0         0         0         0         0         0         0         0         0         0         0         0         0         0         0 
dram[4]:         0         0         0         0         0         0         0         0         0         0         0         0         0         0         0         0 
dram[5]:         0         0         0         0         0         0         0         0         0         0         0         0         0         0         0         0 
dram[6]:         0         0         0         0         0         0         0         0         0         0         0         0         0         0         0         0 
dram[7]:         0         0         0         0         0         0         0         0         0         0         0         0         0         0         0         0 
dram[8]:         0         0         0         0         0         0         0         0         0         0         0         0         0         0         0         0 
dram[9]:         0         0         0         0         0         0         0         0         0         0         0         0         0         0         0         0 
dram[10]:         0         0         0         0         0         0         0         0         0         0         0         0         0         0         0         0 
dram[11]:         0         0         0         0         0         0         0         0         0         0         0         0         0         0         0         0 
total dram reads = 0
min_bank_accesses = 0!
min_chip_accesses = 0!
number of total write accesses:
dram[0]:       148       148       128       128       176       172        80        84        24        16         0         0         0         0        12        12 
dram[1]:       148       144       128       128       172       172        80        80        16        16         0         0         0         0        12        12 
dram[2]:       140       144       128       128       180       188        76        68        24        24         0         0         0         0        12        12 
dram[3]:       136       132       128       128       172       172        76        76        28        28         0         0         0         0        12        12 
dram[4]:       136       136       128       128       172       176        80        76        20        20         0         0         0         0        12        12 
dram[5]:       144       144       128       128       180       180        76        76        24        20         0         0         0         0        12        12 
dram[6]:       144       144       128       128       180       172        76        84        20        20         0         0         0         0        12        12 
dram[7]:       144       144       128       128       180       176        76        76        20        20         0         0         0         0        12        12 
dram[8]:       148       144       128       128       176       172        80        84        24        24         0         0         0         0        12        12 
dram[9]:       144       144       128       128       176       176        80        76        20        20         0         0         0         0        12        12 
dram[10]:       152       152       128       128       164       164        84        88        12        12         0         0         0         0        12        12 
dram[11]:       148       148       128       128       172       172        84        84        24        16         0         0         0         0        12        12 
total dram writes = 13400
min_bank_accesses = 0!
chip skew: 1132/1096 = 1.03
average mf latency per bank:
dram[0]:       1870      1883      1999      2073      1406      1464      2817      2701     10178     15169    none      none      none      none       21032     22057
dram[1]:       1938      2053      2160      2244      1586      1698      2977      3297     15483     17260    none      none      none      none       22175     23918
dram[2]:       1974      2074      2052      2242      1460      1490      3152      3975     10109     11470    none      none      none      none       22049     24453
dram[3]:       1992      1978      1980      1928      1530      1491      3377      3171      9355      8753    none      none      none      none       23201     21389
dram[4]:       2003      2019      1976      2016      1570      1472      3176      3044     12814     12305    none      none      none      none       21580     22472
dram[5]:       2028      1970      2142      2062      1569      1534      3418      3410     10878     13778    none      none      none      none       23686     23542
dram[6]:       1823      1891      1937      2078      1400      1488      3092      2784     11866     11940    none      none      none      none       21091     22065
dram[7]:       1899      1882      2067      2068      1410      1494      3068      3154     12418     12564    none      none      none      none       22157     22332
dram[8]:       1750      1899      1993      2132      1439      1495      2987      2960     10168     10847    none      none      none      none       20468     21761
dram[9]:       1994      1769      2153      1939      1455      1436      3119      3313     13069     12603    none      none      none      none       23332     21114
dram[10]:       1710      1651      1972      1962      1540      1528      2837      2675     20630     20191    none      none      none      none       20994     21134
dram[11]:       1763      1837      1974      2007      1457      1507      2729      2831      9722     15467    none      none      none      none       20524     21194
maximum mf latency per bank:
dram[0]:        664       714       662       660       665       682       693       684       741       742       761       758       751       781       777       781
dram[1]:        754       786       798       882       741       774       764       813       727       766       681       727       707       796       757       805
dram[2]:        701       816       757       821       688       802       666       816       679       823       711       838       750       813       737       762
dram[3]:        687       679       691       657       785       663       785       684       923       810       863       758       845       771       808       772
dram[4]:        677       746       705       717       736       692       654       643       812       862       768       859       767       851       751       873
dram[5]:        805       801       821       806       836       786       723       728       832       851       812       826       880       876       862       861
dram[6]:        648       720       686       698       681       677       752       719       715       715       754       768       780       775       744       728
dram[7]:        701       739       692       753       707       709       807       798       806       730       827       785       796       784       783       755
dram[8]:        651       693       679       689       719       687       695       711       810       829       773       792       737       765       744       790
dram[9]:        730       705       712       663       687       706       689       666       873       825       763       784       758       763       774       772
dram[10]:        652       670       673       659       663       657       803       796       691       691       771       768       791       805       765       795
dram[11]:        654       663       659       682       657       685       798       834       626       675       785       801       773       760       711       767
Memory Partition 0: 
Cache L2_bank_000:
MSHR contents

Cache L2_bank_001:
MSHR contents

In Dram Latency Queue (total = 8): 
Ready @ 13325 -   mf: uid=255240, sid4294967295:w4294967295, part=0, addr=0xc0b16c80, store, size=128, L2_WRBK  status = IN_PARTITION_DRAM_LATENCY_QUEUE (13229), 
Ready @ 13327 -   mf: uid=255231, sid4294967295:w4294967295, part=0, addr=0xc0b10c00, store, size=128, L2_WRBK  status = IN_PARTITION_DRAM_LATENCY_QUEUE (13231), 
Ready @ 13337 -   mf: uid=255263, sid4294967295:w4294967295, part=0, addr=0xc0b10c80, store, size=128, L2_WRBK  status = IN_PARTITION_DRAM_LATENCY_QUEUE (13241), 
Ready @ 13339 -   mf: uid=255268, sid4294967295:w4294967295, part=0, addr=0xc0b19c00, store, size=128, L2_WRBK  status = IN_PARTITION_DRAM_LATENCY_QUEUE (13243), 
Ready @ 13341 -   mf: uid=255282, sid4294967295:w4294967295, part=0, addr=0xc0b12480, store, size=128, L2_WRBK  status = IN_PARTITION_DRAM_LATENCY_QUEUE (13245), 
Ready @ 13351 -   mf: uid=255290, sid4294967295:w4294967295, part=0, addr=0xc0b17800, store, size=128, L2_WRBK  status = IN_PARTITION_DRAM_LATENCY_QUEUE (13255), 
Ready @ 13353 -   mf: uid=255311, sid4294967295:w4294967295, part=0, addr=0xc0b17880, store, size=128, L2_WRBK  status = IN_PARTITION_DRAM_LATENCY_QUEUE (13257), 
Ready @ 13364 -   mf: uid=255319, sid4294967295:w4294967295, part=0, addr=0xc0b19c80, store, size=128, L2_WRBK  status = IN_PARTITION_DRAM_LATENCY_QUEUE (13268), 
DRAM[0]: 16 bks, busW=2 BL=16 CL=24, tRRD=12 tCCD=4, tRCD=24 tRAS=55 tRP=24 tRC=78
n_cmd=34313 n_nop=33414 n_act=34 n_pre=22 n_ref_event=0 n_req=282 n_rd=0 n_rd_L2_A=0 n_write=0 n_wr_bk=847 bw_util=0.09874
n_activity=3608 dram_eff=0.939
bk0: 0a 32690i bk1: 0a 32392i bk2: 0a 32702i bk3: 0a 32220i bk4: 0a 32291i bk5: 0a 32315i bk6: 0a 32464i bk7: 0a 32511i bk8: 0a 33664i bk9: 0a 33703i bk10: 0a 34308i bk11: 0a 34314i bk12: 0a 34315i bk13: 0a 34320i bk14: 0a 34148i bk15: 0a 34176i 

------------------------------------------------------------------------

Row_Buffer_Locality = 0.844037
Row_Buffer_Locality_read = -nan
Row_Buffer_Locality_write = 0.844037
Bank_Level_Parallism = 4.825810
Bank_Level_Parallism_Col = 4.505517
Bank_Level_Parallism_Ready = 3.073944
write_to_read_ratio_blp_rw_average = 1.000000
GrpLevelPara = 3.374855 

BW Util details:
bwutil = 0.098738 
total_CMD = 34313 
util_bw = 3386 
Wasted_Col = 83 
Wasted_Row = 8 
Idle = 30836 

BW Util Bottlenecks: 
RCDc_limit = 0 
RCDWRc_limit = 29 
WTRc_limit = 0 
RTWc_limit = 0 
CCDLc_limit = 74 
rwq = 0 
CCDLc_limit_alone = 74 
WTRc_limit_alone = 0 
RTWc_limit_alone = 0 

Commands details: 
total_CMD = 34313 
n_nop = 33414 
Read = 0 
Write = 0 
L2_Alloc = 0 
L2_WB = 847 
n_act = 34 
n_pre = 22 
n_ref = 0 
n_req = 282 
total_req = 847 

Dual Bus Interface Util: 
issued_total_row = 56 
issued_total_col = 847 
Row_Bus_Util =  0.001632 
CoL_Bus_Util = 0.024685 
Either_Row_CoL_Bus_Util = 0.026200 
Issued_on_Two_Bus_Simul_Util = 0.000117 
issued_two_Eff = 0.004449 
queue_avg = 2.955906 


dram_util_bins: 0 0 0 0 0 0 0 0 0 0
dram_eff_bins: 0 0 0 0 0 0 0 0 0 0
mrqq: max=64 avg=2.95591
Memory Partition 1: 
Cache L2_bank_002:
MSHR contents

Cache L2_bank_003:
MSHR contents

In Dram Latency Queue (total = 13): 
Ready @ 13312 -   mf: uid=255168, sid4294967295:w4294967295, part=1, addr=0xc0ae6d80, store, size=128, L2_WRBK  status = IN_PARTITION_DRAM_LATENCY_QUEUE (13216), 
Ready @ 13314 -   mf: uid=255160, sid4294967295:w4294967295, part=1, addr=0xc09ded00, store, size=128, L2_WRBK  status = IN_PARTITION_DRAM_LATENCY_QUEUE (13218), 
Ready @ 13314 -   mf: uid=255183, sid4294967295:w4294967295, part=1, addr=0xc09ded80, store, size=128, L2_WRBK  status = IN_PARTITION_DRAM_LATENCY_QUEUE (13218), 
Ready @ 13314 -   mf: uid=255174, sid4294967295:w4294967295, part=1, addr=0xc0b16d00, store, size=128, L2_WRBK  status = IN_PARTITION_DRAM_LATENCY_QUEUE (13218), 
Ready @ 13325 -   mf: uid=255199, sid4294967295:w4294967295, part=1, addr=0xc0c30d80, store, size=128, L2_WRBK  status = IN_PARTITION_DRAM_LATENCY_QUEUE (13229), 
Ready @ 13329 -   mf: uid=255236, sid4294967295:w4294967295, part=1, addr=0xc0b10d00, store, size=128, L2_WRBK  status = IN_PARTITION_DRAM_LATENCY_QUEUE (13233), 
Ready @ 13334 -   mf: uid=255246, sid4294967295:w4294967295, part=1, addr=0xc0b19180, store, size=128, L2_WRBK  status = IN_PARTITION_DRAM_LATENCY_QUEUE (13238), 
Ready @ 13345 -   mf: uid=255253, sid4294967295:w4294967295, part=1, addr=0xc0b19100, store, size=128, L2_WRBK  status = IN_PARTITION_DRAM_LATENCY_QUEUE (13249), 
Ready @ 13346 -   mf: uid=255272, sid4294967295:w4294967295, part=1, addr=0xc0b10d80, store, size=128, L2_WRBK  status = IN_PARTITION_DRAM_LATENCY_QUEUE (13250), 
Ready @ 13357 -   mf: uid=255269, sid4294967295:w4294967295, part=1, addr=0xc0b12500, store, size=128, L2_WRBK  status = IN_PARTITION_DRAM_LATENCY_QUEUE (13261), 
Ready @ 13359 -   mf: uid=255291, sid4294967295:w4294967295, part=1, addr=0xc0b12580, store, size=128, L2_WRBK  status = IN_PARTITION_DRAM_LATENCY_QUEUE (13263), 
Ready @ 13368 -   mf: uid=255302, sid4294967295:w4294967295, part=1, addr=0xc0b17900, store, size=128, L2_WRBK  status = IN_PARTITION_DRAM_LATENCY_QUEUE (13272), 
Ready @ 13370 -   mf: uid=255312, sid4294967295:w4294967295, part=1, addr=0xc0b17980, store, size=128, L2_WRBK  status = IN_PARTITION_DRAM_LATENCY_QUEUE (13274), 
DRAM[1]: 16 bks, busW=2 BL=16 CL=24, tRRD=12 tCCD=4, tRCD=24 tRAS=55 tRP=24 tRC=78
n_cmd=34313 n_nop=33421 n_act=37 n_pre=25 n_ref_event=0 n_req=277 n_rd=0 n_rd_L2_A=0 n_write=0 n_wr_bk=837 bw_util=0.09757
n_activity=3583 dram_eff=0.9344
bk0: 0a 32528i bk1: 0a 32311i bk2: 0a 32563i bk3: 0a 32418i bk4: 0a 32252i bk5: 0a 32273i bk6: 0a 32597i bk7: 0a 32633i bk8: 0a 33893i bk9: 0a 33891i bk10: 0a 34308i bk11: 0a 34313i bk12: 0a 34318i bk13: 0a 34324i bk14: 0a 34101i bk15: 0a 34150i 

------------------------------------------------------------------------

Row_Buffer_Locality = 0.826291
Row_Buffer_Locality_read = -nan
Row_Buffer_Locality_write = 0.826291
Bank_Level_Parallism = 4.686083
Bank_Level_Parallism_Col = 4.346231
Bank_Level_Parallism_Ready = 3.059595
write_to_read_ratio_blp_rw_average = 1.000000
GrpLevelPara = 3.410338 

BW Util details:
bwutil = 0.097572 
total_CMD = 34313 
util_bw = 3347 
Wasted_Col = 140 
Wasted_Row = 16 
Idle = 30810 

BW Util Bottlenecks: 
RCDc_limit = 0 
RCDWRc_limit = 89 
WTRc_limit = 0 
RTWc_limit = 0 
CCDLc_limit = 91 
rwq = 0 
CCDLc_limit_alone = 91 
WTRc_limit_alone = 0 
RTWc_limit_alone = 0 

Commands details: 
total_CMD = 34313 
n_nop = 33421 
Read = 0 
Write = 0 
L2_Alloc = 0 
L2_WB = 837 
n_act = 37 
n_pre = 25 
n_ref = 0 
n_req = 277 
total_req = 837 

Dual Bus Interface Util: 
issued_total_row = 62 
issued_total_col = 837 
Row_Bus_Util =  0.001807 
CoL_Bus_Util = 0.024393 
Either_Row_CoL_Bus_Util = 0.025996 
Issued_on_Two_Bus_Simul_Util = 0.000204 
issued_two_Eff = 0.007848 
queue_avg = 3.221694 


dram_util_bins: 0 0 0 0 0 0 0 0 0 0
dram_eff_bins: 0 0 0 0 0 0 0 0 0 0
mrqq: max=64 avg=3.22169
Memory Partition 2: 
Cache L2_bank_004:
MSHR contents

Cache L2_bank_005:
MSHR contents

In Dram Latency Queue (total = 9): 
Ready @ 13329 -   mf: uid=255175, sid4294967295:w4294967295, part=2, addr=0xc0c09e00, store, size=128, L2_WRBK  status = IN_PARTITION_DRAM_LATENCY_QUEUE (13233), 
Ready @ 13340 -   mf: uid=255206, sid4294967295:w4294967295, part=2, addr=0xc0b17a80, store, size=128, L2_WRBK  status = IN_PARTITION_DRAM_LATENCY_QUEUE (13244), 
Ready @ 13341 -   mf: uid=255189, sid4294967295:w4294967295, part=2, addr=0xc0b17a00, store, size=128, L2_WRBK  status = IN_PARTITION_DRAM_LATENCY_QUEUE (13245), 
Ready @ 13352 -   mf: uid=255233, sid4294967295:w4294967295, part=2, addr=0xc0b12680, store, size=128, L2_WRBK  status = IN_PARTITION_DRAM_LATENCY_QUEUE (13256), 
Ready @ 13354 -   mf: uid=255232, sid4294967295:w4294967295, part=2, addr=0xc0b12600, store, size=128, L2_WRBK  status = IN_PARTITION_DRAM_LATENCY_QUEUE (13258), 
Ready @ 13365 -   mf: uid=255258, sid4294967295:w4294967295, part=2, addr=0xc0aeb680, store, size=128, L2_WRBK  status = IN_PARTITION_DRAM_LATENCY_QUEUE (13269), 
Ready @ 13366 -   mf: uid=255270, sid4294967295:w4294967295, part=2, addr=0xc0aeb600, store, size=128, L2_WRBK  status = IN_PARTITION_DRAM_LATENCY_QUEUE (13270), 
Ready @ 13377 -   mf: uid=255277, sid4294967295:w4294967295, part=2, addr=0xc0b19280, store, size=128, L2_WRBK  status = IN_PARTITION_DRAM_LATENCY_QUEUE (13281), 
Ready @ 13379 -   mf: uid=255293, sid4294967295:w4294967295, part=2, addr=0xc0b19200, store, size=128, L2_WRBK  status = IN_PARTITION_DRAM_LATENCY_QUEUE (13283), 
DRAM[2]: 16 bks, busW=2 BL=16 CL=24, tRRD=12 tCCD=4, tRCD=24 tRAS=55 tRP=24 tRC=78
n_cmd=34313 n_nop=33410 n_act=38 n_pre=26 n_ref_event=0 n_req=281 n_rd=0 n_rd_L2_A=0 n_write=0 n_wr_bk=842 bw_util=0.09816
n_activity=3518 dram_eff=0.9574
bk0: 0a 32448i bk1: 0a 32243i bk2: 0a 32564i bk3: 0a 32100i bk4: 0a 32093i bk5: 0a 32099i bk6: 0a 32708i bk7: 0a 32803i bk8: 0a 33417i bk9: 0a 33421i bk10: 0a 34310i bk11: 0a 34314i bk12: 0a 34318i bk13: 0a 34318i bk14: 0a 34171i bk15: 0a 34182i 

------------------------------------------------------------------------

Row_Buffer_Locality = 0.824885
Row_Buffer_Locality_read = -nan
Row_Buffer_Locality_write = 0.824885
Bank_Level_Parallism = 5.116185
Bank_Level_Parallism_Col = 4.713212
Bank_Level_Parallism_Ready = 3.216568
write_to_read_ratio_blp_rw_average = 1.000000
GrpLevelPara = 3.300376 

BW Util details:
bwutil = 0.098155 
total_CMD = 34313 
util_bw = 3368 
Wasted_Col = 102 
Wasted_Row = 0 
Idle = 30843 

BW Util Bottlenecks: 
RCDc_limit = 0 
RCDWRc_limit = 67 
WTRc_limit = 0 
RTWc_limit = 0 
CCDLc_limit = 72 
rwq = 0 
CCDLc_limit_alone = 72 
WTRc_limit_alone = 0 
RTWc_limit_alone = 0 

Commands details: 
total_CMD = 34313 
n_nop = 33410 
Read = 0 
Write = 0 
L2_Alloc = 0 
L2_WB = 842 
n_act = 38 
n_pre = 26 
n_ref = 0 
n_req = 281 
total_req = 842 

Dual Bus Interface Util: 
issued_total_row = 64 
issued_total_col = 842 
Row_Bus_Util =  0.001865 
CoL_Bus_Util = 0.024539 
Either_Row_CoL_Bus_Util = 0.026317 
Issued_on_Two_Bus_Simul_Util = 0.000087 
issued_two_Eff = 0.003322 
queue_avg = 3.263836 


dram_util_bins: 0 0 0 0 0 0 0 0 0 0
dram_eff_bins: 0 0 0 0 0 0 0 0 0 0
mrqq: max=64 avg=3.26384
Memory Partition 3: 
Cache L2_bank_006:
MSHR contents

Cache L2_bank_007:
MSHR contents

In Dram Latency Queue (total = 13): 
Ready @ 13316 -   mf: uid=255180, sid4294967295:w4294967295, part=3, addr=0xc0c09f00, store, size=128, L2_WRBK  status = IN_PARTITION_DRAM_LATENCY_QUEUE (13220), 
Ready @ 13327 -   mf: uid=255190, sid4294967295:w4294967295, part=3, addr=0xc0ae4b80, store, size=128, L2_WRBK  status = IN_PARTITION_DRAM_LATENCY_QUEUE (13231), 
Ready @ 13337 -   mf: uid=255195, sid4294967295:w4294967295, part=3, addr=0xc0b08b00, store, size=128, L2_WRBK  status = IN_PARTITION_DRAM_LATENCY_QUEUE (13241), 
Ready @ 13348 -   mf: uid=255205, sid4294967295:w4294967295, part=3, addr=0xc0ae3f80, store, size=128, L2_WRBK  status = IN_PARTITION_DRAM_LATENCY_QUEUE (13252), 
Ready @ 13359 -   mf: uid=255228, sid4294967295:w4294967295, part=3, addr=0xc0ae9300, store, size=128, L2_WRBK  status = IN_PARTITION_DRAM_LATENCY_QUEUE (13263), 
Ready @ 13361 -   mf: uid=255214, sid4294967295:w4294967295, part=3, addr=0xc0b08b80, store, size=128, L2_WRBK  status = IN_PARTITION_DRAM_LATENCY_QUEUE (13265), 
Ready @ 13372 -   mf: uid=255250, sid4294967295:w4294967295, part=3, addr=0xc0b12700, store, size=128, L2_WRBK  status = IN_PARTITION_DRAM_LATENCY_QUEUE (13276), 
Ready @ 13373 -   mf: uid=255259, sid4294967295:w4294967295, part=3, addr=0xc0ae9380, store, size=128, L2_WRBK  status = IN_PARTITION_DRAM_LATENCY_QUEUE (13277), 
Ready @ 13384 -   mf: uid=255275, sid4294967295:w4294967295, part=3, addr=0xc0b04300, store, size=128, L2_WRBK  status = IN_PARTITION_DRAM_LATENCY_QUEUE (13288), 
Ready @ 13386 -   mf: uid=255287, sid4294967295:w4294967295, part=3, addr=0xc0b12780, store, size=128, L2_WRBK  status = IN_PARTITION_DRAM_LATENCY_QUEUE (13290), 
Ready @ 13397 -   mf: uid=255299, sid4294967295:w4294967295, part=3, addr=0xc0aeb700, store, size=128, L2_WRBK  status = IN_PARTITION_DRAM_LATENCY_QUEUE (13301), 
Ready @ 13398 -   mf: uid=255305, sid4294967295:w4294967295, part=3, addr=0xc0b04380, store, size=128, L2_WRBK  status = IN_PARTITION_DRAM_LATENCY_QUEUE (13302), 
Ready @ 13409 -   mf: uid=255320, sid4294967295:w4294967295, part=3, addr=0xc0aeb780, store, size=128, L2_WRBK  status = IN_PARTITION_DRAM_LATENCY_QUEUE (13313), 
DRAM[3]: 16 bks, busW=2 BL=16 CL=24, tRRD=12 tCCD=4, tRCD=24 tRAS=55 tRP=24 tRC=78
n_cmd=34313 n_nop=33436 n_act=36 n_pre=25 n_ref_event=0 n_req=275 n_rd=0 n_rd_L2_A=0 n_write=0 n_wr_bk=821 bw_util=0.09571
n_activity=3536 dram_eff=0.9287
bk0: 0a 32422i bk1: 0a 32239i bk2: 0a 32416i bk3: 0a 32354i bk4: 0a 32122i bk5: 0a 32132i bk6: 0a 32629i bk7: 0a 32847i bk8: 0a 33538i bk9: 0a 33503i bk10: 0a 34309i bk11: 0a 34312i bk12: 0a 34316i bk13: 0a 34324i bk14: 0a 34153i bk15: 0a 34116i 

------------------------------------------------------------------------

Row_Buffer_Locality = 0.819905
Row_Buffer_Locality_read = -nan
Row_Buffer_Locality_write = 0.819905
Bank_Level_Parallism = 5.100438
Bank_Level_Parallism_Col = 4.779846
Bank_Level_Parallism_Ready = 3.336970
write_to_read_ratio_blp_rw_average = 1.000000
GrpLevelPara = 3.422577 

BW Util details:
bwutil = 0.095707 
total_CMD = 34313 
util_bw = 3282 
Wasted_Col = 134 
Wasted_Row = 31 
Idle = 30866 

BW Util Bottlenecks: 
RCDc_limit = 0 
RCDWRc_limit = 81 
WTRc_limit = 0 
RTWc_limit = 0 
CCDLc_limit = 88 
rwq = 0 
CCDLc_limit_alone = 88 
WTRc_limit_alone = 0 
RTWc_limit_alone = 0 

Commands details: 
total_CMD = 34313 
n_nop = 33436 
Read = 0 
Write = 0 
L2_Alloc = 0 
L2_WB = 821 
n_act = 36 
n_pre = 25 
n_ref = 0 
n_req = 275 
total_req = 821 

Dual Bus Interface Util: 
issued_total_row = 61 
issued_total_col = 821 
Row_Bus_Util =  0.001778 
CoL_Bus_Util = 0.023927 
Either_Row_CoL_Bus_Util = 0.025559 
Issued_on_Two_Bus_Simul_Util = 0.000146 
issued_two_Eff = 0.005701 
queue_avg = 3.291493 


dram_util_bins: 0 0 0 0 0 0 0 0 0 0
dram_eff_bins: 0 0 0 0 0 0 0 0 0 0
mrqq: max=64 avg=3.29149
Memory Partition 4: 
Cache L2_bank_008:
MSHR contents

Cache L2_bank_009:
MSHR contents

In Dram Latency Queue (total = 14): 
Ready @ 13344 -   mf: uid=255211, sid4294967295:w4294967295, part=4, addr=0xc0ae9400, store, size=128, L2_WRBK  status = IN_PARTITION_DRAM_LATENCY_QUEUE (13248), 
Ready @ 13345 -   mf: uid=255241, sid4294967295:w4294967295, part=4, addr=0xc0ae9480, store, size=128, L2_WRBK  status = IN_PARTITION_DRAM_LATENCY_QUEUE (13249), 
Ready @ 13355 -   mf: uid=255222, sid4294967295:w4294967295, part=4, addr=0xc0b11000, store, size=128, L2_WRBK  status = IN_PARTITION_DRAM_LATENCY_QUEUE (13259), 
Ready @ 13356 -   mf: uid=255254, sid4294967295:w4294967295, part=4, addr=0xc0b11080, store, size=128, L2_WRBK  status = IN_PARTITION_DRAM_LATENCY_QUEUE (13260), 
Ready @ 13359 -   mf: uid=255247, sid4294967295:w4294967295, part=4, addr=0xc0c0a000, store, size=128, L2_WRBK  status = IN_PARTITION_DRAM_LATENCY_QUEUE (13263), 
Ready @ 13367 -   mf: uid=255283, sid4294967295:w4294967295, part=4, addr=0xc0c0a080, store, size=128, L2_WRBK  status = IN_PARTITION_DRAM_LATENCY_QUEUE (13271), 
Ready @ 13372 -   mf: uid=255260, sid4294967295:w4294967295, part=4, addr=0xc0c30400, store, size=128, L2_WRBK  status = IN_PARTITION_DRAM_LATENCY_QUEUE (13276), 
Ready @ 13380 -   mf: uid=255298, sid4294967295:w4294967295, part=4, addr=0xc0c30480, store, size=128, L2_WRBK  status = IN_PARTITION_DRAM_LATENCY_QUEUE (13284), 
Ready @ 13380 -   mf: uid=255294, sid4294967295:w4294967295, part=4, addr=0xc0b04400, store, size=128, L2_WRBK  status = IN_PARTITION_DRAM_LATENCY_QUEUE (13284), 
Ready @ 13380 -   mf: uid=255316, sid4294967295:w4294967295, part=4, addr=0xc0b04480, store, size=128, L2_WRBK  status = IN_PARTITION_DRAM_LATENCY_QUEUE (13284), 
Ready @ 13384 -   mf: uid=255315, sid4294967295:w4294967295, part=4, addr=0xc0aeb800, store, size=128, L2_WRBK  status = IN_PARTITION_DRAM_LATENCY_QUEUE (13288), 
Ready @ 13395 -   mf: uid=255325, sid4294967295:w4294967295, part=4, addr=0xc0aeb880, store, size=128, L2_WRBK  status = IN_PARTITION_DRAM_LATENCY_QUEUE (13299), 
Ready @ 13397 -   mf: uid=255324, sid4294967295:w4294967295, part=4, addr=0xc0b17c00, store, size=128, L2_WRBK  status = IN_PARTITION_DRAM_LATENCY_QUEUE (13301), 
Ready @ 13408 -   mf: uid=255329, sid4294967295:w4294967295, part=4, addr=0xc0b17c80, store, size=128, L2_WRBK  status = IN_PARTITION_DRAM_LATENCY_QUEUE (13312), 
DRAM[4]: 16 bks, busW=2 BL=16 CL=24, tRRD=12 tCCD=4, tRCD=24 tRAS=55 tRP=24 tRC=78
n_cmd=34313 n_nop=33445 n_act=39 n_pre=28 n_ref_event=0 n_req=274 n_rd=0 n_rd_L2_A=0 n_write=0 n_wr_bk=809 bw_util=0.09431
n_activity=3550 dram_eff=0.9115
bk0: 0a 32367i bk1: 0a 32343i bk2: 0a 32419i bk3: 0a 32390i bk4: 0a 32338i bk5: 0a 32363i bk6: 0a 32596i bk7: 0a 32891i bk8: 0a 34056i bk9: 0a 34061i bk10: 0a 34309i bk11: 0a 34317i bk12: 0a 34322i bk13: 0a 34323i bk14: 0a 34096i bk15: 0a 34138i 

------------------------------------------------------------------------

Row_Buffer_Locality = 0.809524
Row_Buffer_Locality_read = -nan
Row_Buffer_Locality_write = 0.809524
Bank_Level_Parallism = 4.659231
Bank_Level_Parallism_Col = 4.239408
Bank_Level_Parallism_Ready = 3.007380
write_to_read_ratio_blp_rw_average = 1.000000
GrpLevelPara = 3.365037 

BW Util details:
bwutil = 0.094308 
total_CMD = 34313 
util_bw = 3234 
Wasted_Col = 175 
Wasted_Row = 20 
Idle = 30884 

BW Util Bottlenecks: 
RCDc_limit = 0 
RCDWRc_limit = 101 
WTRc_limit = 0 
RTWc_limit = 0 
CCDLc_limit = 98 
rwq = 0 
CCDLc_limit_alone = 98 
WTRc_limit_alone = 0 
RTWc_limit_alone = 0 

Commands details: 
total_CMD = 34313 
n_nop = 33445 
Read = 0 
Write = 0 
L2_Alloc = 0 
L2_WB = 809 
n_act = 39 
n_pre = 28 
n_ref = 0 
n_req = 274 
total_req = 809 

Dual Bus Interface Util: 
issued_total_row = 67 
issued_total_col = 809 
Row_Bus_Util =  0.001953 
CoL_Bus_Util = 0.023577 
Either_Row_CoL_Bus_Util = 0.025297 
Issued_on_Two_Bus_Simul_Util = 0.000233 
issued_two_Eff = 0.009217 
queue_avg = 3.244339 


dram_util_bins: 0 0 0 0 0 0 0 0 0 0
dram_eff_bins: 0 0 0 0 0 0 0 0 0 0
mrqq: max=64 avg=3.24434
Memory Partition 5: 
Cache L2_bank_010:
MSHR contents

Cache L2_bank_011:
MSHR contents

In Dram Latency Queue (total = 7): 
Ready @ 13341 -   mf: uid=255288, sid4294967295:w4294967295, part=5, addr=0xc0b16580, store, size=128, L2_WRBK  status = IN_PARTITION_DRAM_LATENCY_QUEUE (13245), 
Ready @ 13347 -   mf: uid=255284, sid4294967295:w4294967295, part=5, addr=0xc0aeb900, store, size=128, L2_WRBK  status = IN_PARTITION_DRAM_LATENCY_QUEUE (13251), 
Ready @ 13347 -   mf: uid=255303, sid4294967295:w4294967295, part=5, addr=0xc0aeb980, store, size=128, L2_WRBK  status = IN_PARTITION_DRAM_LATENCY_QUEUE (13251), 
Ready @ 13348 -   mf: uid=255308, sid4294967295:w4294967295, part=5, addr=0xc0aea100, store, size=128, L2_WRBK  status = IN_PARTITION_DRAM_LATENCY_QUEUE (13252), 
Ready @ 13351 -   mf: uid=255322, sid4294967295:w4294967295, part=5, addr=0xc0aea180, store, size=128, L2_WRBK  status = IN_PARTITION_DRAM_LATENCY_QUEUE (13255), 
Ready @ 13359 -   mf: uid=255323, sid4294967295:w4294967295, part=5, addr=0xc0b17d00, store, size=128, L2_WRBK  status = IN_PARTITION_DRAM_LATENCY_QUEUE (13263), 
Ready @ 13367 -   mf: uid=255328, sid4294967295:w4294967295, part=5, addr=0xc0b17d80, store, size=128, L2_WRBK  status = IN_PARTITION_DRAM_LATENCY_QUEUE (13271), 
[...]

------------------------------------------------------------------------

Row_Buffer_Locality = 0.648350
Row_Buffer_Locality_read = 0.677844
Row_Buffer_Locality_write = 0.295859
Bank_Level_Parallism = 3.889622
Bank_Level_Parallism_Col = 2.891267
Bank_Level_Parallism_Ready = 1.628856
write_to_read_ratio_blp_rw_average = 0.227863
GrpLevelPara = 2.072217 

BW Util details:
bwutil = 0.330597 
total_CMD = 2195921 
util_bw = 725964 
Wasted_Col = 654542 
Wasted_Row = 202637 
Idle = 612778 

BW Util Bottlenecks: 
RCDc_limit = 701171 
RCDWRc_limit = 53799 
WTRc_limit = 264490 
RTWc_limit = 251353 
CCDLc_limit = 132399 
rwq = 0 
CCDLc_limit_alone = 100696 
WTRc_limit_alone = 248967 
RTWc_limit_alone = 235173 

Commands details: 
total_CMD = 2195921 
n_nop = 1912160 
Read = 142875 
Write = 0 
L2_Alloc = 0 
L2_WB = 38616 
n_act = 54446 
n_pre = 54430 
n_ref = 0 
n_req = 154830 
total_req = 181491 

Dual Bus Interface Util: 
issued_total_row = 108876 
issued_total_col = 181491 
Row_Bus_Util =  0.049581 
CoL_Bus_Util = 0.082649 
Either_Row_CoL_Bus_Util = 0.129222 
Issued_on_Two_Bus_Simul_Util = 0.003008 
issued_two_Eff = 0.023280 
queue_avg = 7.082595 


dram_util_bins: 0 0 0 0 0 0 0 0 0 0
dram_eff_bins: 0 0 0 0 0 0 0 0 0 0
mrqq: max=64 avg=7.08259
Memory Partition 7: 
Cache L2_bank_014:
MSHR contents

Cache L2_bank_015:
MSHR contents

In Dram Latency Queue (total = 0): 
DRAM[7]: 16 bks, busW=2 BL=16 CL=24, tRRD=12 tCCD=4, tRCD=24 tRAS=55 tRP=24 tRC=78
n_cmd=2195921 n_nop=1913608 n_act=53798 n_pre=53782 n_ref_event=0 n_req=154423 n_rd=142526 n_rd_L2_A=0 n_write=0 n_wr_bk=38491 bw_util=0.3297
n_activity=1725823 dram_eff=0.4195
bk0: 9224a 1821306i bk1: 9173a 1814651i bk2: 8374a 1872303i bk3: 8569a 1847676i bk4: 8514a 1846618i bk5: 8454a 1845898i bk6: 8549a 1842924i bk7: 8626a 1839413i bk8: 9080a 1822654i bk9: 9163a 1812206i bk10: 9022a 1826486i bk11: 9073a 1818049i bk12: 9033a 1827053i bk13: 9015a 1832605i bk14: 9299a 1819087i bk15: 9358a 1820465i 

------------------------------------------------------------------------

Row_Buffer_Locality = 0.651619
Row_Buffer_Locality_read = 0.681595
Row_Buffer_Locality_write = 0.292511
Bank_Level_Parallism = 3.820598
Bank_Level_Parallism_Col = 2.870682
Bank_Level_Parallism_Ready = 1.622830
write_to_read_ratio_blp_rw_average = 0.227124
GrpLevelPara = 2.069359 

BW Util details:
bwutil = 0.329733 
total_CMD = 2195921 
util_bw = 724068 
Wasted_Col = 651856 
Wasted_Row = 205887 
Idle = 614110 

BW Util Bottlenecks: 
RCDc_limit = 694598 
RCDWRc_limit = 53253 
WTRc_limit = 262022 
RTWc_limit = 245878 
CCDLc_limit = 132097 
rwq = 0 
CCDLc_limit_alone = 100140 
WTRc_limit_alone = 246373 
RTWc_limit_alone = 229570 

Commands details: 
total_CMD = 2195921 
n_nop = 1913608 
Read = 142526 
Write = 0 
L2_Alloc = 0 
L2_WB = 38491 
n_act = 53798 
n_pre = 53782 
n_ref = 0 
n_req = 154423 
total_req = 181017 

Dual Bus Interface Util: 
issued_total_row = 107580 
issued_total_col = 181017 
Row_Bus_Util =  0.048991 
CoL_Bus_Util = 0.082433 
Either_Row_CoL_Bus_Util = 0.128562 
Issued_on_Two_Bus_Simul_Util = 0.002862 
issued_two_Eff = 0.022259 
queue_avg = 6.829620 


dram_util_bins: 0 0 0 0 0 0 0 0 0 0
dram_eff_bins: 0 0 0 0 0 0 0 0 0 0
mrqq: max=64 avg=6.82962
Memory Partition 8: 
Cache L2_bank_016:
MSHR contents

Cache L2_bank_017:
MSHR contents

In Dram Latency Queue (total = 0): 
DRAM[8]: 16 bks, busW=2 BL=16 CL=24, tRRD=12 tCCD=4, tRCD=24 tRAS=55 tRP=24 tRC=78
n_cmd=2195921 n_nop=1911810 n_act=54383 n_pre=54367 n_ref_event=0 n_req=155427 n_rd=143510 n_rd_L2_A=0 n_write=0 n_wr_bk=38494 bw_util=0.3315
n_activity=1729056 dram_eff=0.421
bk0: 9162a 1823336i bk1: 9443a 1803400i bk2: 8529a 1849880i bk3: 8563a 1855771i bk4: 8457a 1848719i bk5: 8608a 1842682i bk6: 8666a 1843836i bk7: 8563a 1836431i bk8: 9268a 1803529i bk9: 9201a 1804285i bk10: 9062a 1816841i bk11: 9110a 1814105i bk12: 9194a 1815789i bk13: 9100a 1822708i bk14: 9331a 1819114i bk15: 9253a 1819604i 

------------------------------------------------------------------------

Row_Buffer_Locality = 0.650106
Row_Buffer_Locality_read = 0.680308
Row_Buffer_Locality_write = 0.286398
Bank_Level_Parallism = 3.867351
Bank_Level_Parallism_Col = 2.862421
Bank_Level_Parallism_Ready = 1.638410
write_to_read_ratio_blp_rw_average = 0.223521
GrpLevelPara = 2.069189 

BW Util details:
bwutil = 0.331531 
total_CMD = 2195921 
util_bw = 728016 
Wasted_Col = 653826 
Wasted_Row = 204219 
Idle = 609860 

BW Util Bottlenecks: 
RCDc_limit = 699107 
RCDWRc_limit = 53896 
WTRc_limit = 261436 
RTWc_limit = 243218 
CCDLc_limit = 131626 
rwq = 0 
CCDLc_limit_alone = 100420 
WTRc_limit_alone = 246230 
RTWc_limit_alone = 227218 

Commands details: 
total_CMD = 2195921 
n_nop = 1911810 
Read = 143510 
Write = 0 
L2_Alloc = 0 
L2_WB = 38494 
n_act = 54383 
n_pre = 54367 
n_ref = 0 
n_req = 155427 
total_req = 182004 

Dual Bus Interface Util: 
issued_total_row = 108750 
issued_total_col = 182004 
Row_Bus_Util =  0.049524 
CoL_Bus_Util = 0.082883 
Either_Row_CoL_Bus_Util = 0.129381 
Issued_on_Two_Bus_Simul_Util = 0.003025 
issued_two_Eff = 0.023382 
queue_avg = 7.057317 


dram_util_bins: 0 0 0 0 0 0 0 0 0 0
dram_eff_bins: 0 0 0 0 0 0 0 0 0 0
mrqq: max=64 avg=7.05732
Memory Partition 9: 
Cache L2_bank_018:
MSHR contents

Cache L2_bank_019:
MSHR contents

In Dram Latency Queue (total = 0): 
DRAM[9]: 16 bks, busW=2 BL=16 CL=24, tRRD=12 tCCD=4, tRCD=24 tRAS=55 tRP=24 tRC=78
n_cmd=2195921 n_nop=1912114 n_act=54237 n_pre=54221 n_ref_event=0 n_req=155045 n_rd=143089 n_rd_L2_A=0 n_write=0 n_wr_bk=38568 bw_util=0.3309
n_activity=1724338 dram_eff=0.4214
bk0: 9085a 1830178i bk1: 9164a 1821235i bk2: 8474a 1862567i bk3: 8593a 1845880i bk4: 8595a 1853921i bk5: 8473a 1853303i bk6: 8571a 1842039i bk7: 8621a 1837292i bk8: 9210a 1817683i bk9: 9193a 1808220i bk10: 9249a 1818164i bk11: 9118a 1820824i bk12: 8947a 1831327i bk13: 9078a 1822317i bk14: 9355a 1813298i bk15: 9363a 1815499i 

------------------------------------------------------------------------

Row_Buffer_Locality = 0.650185
Row_Buffer_Locality_read = 0.680297
Row_Buffer_Locality_write = 0.289813
Bank_Level_Parallism = 3.827020
Bank_Level_Parallism_Col = 2.836945
Bank_Level_Parallism_Ready = 1.600822
write_to_read_ratio_blp_rw_average = 0.225625
GrpLevelPara = 2.059201 

BW Util details:
bwutil = 0.330899 
total_CMD = 2195921 
util_bw = 726628 
Wasted_Col = 654448 
Wasted_Row = 201869 
Idle = 612976 

BW Util Bottlenecks: 
RCDc_limit = 698612 
RCDWRc_limit = 53925 
WTRc_limit = 259973 
RTWc_limit = 238567 
CCDLc_limit = 129828 
rwq = 0 
CCDLc_limit_alone = 100463 
WTRc_limit_alone = 245649 
RTWc_limit_alone = 223526 

Commands details: 
total_CMD = 2195921 
n_nop = 1912114 
Read = 143089 
Write = 0 
L2_Alloc = 0 
L2_WB = 38568 
n_act = 54237 
n_pre = 54221 
n_ref = 0 
n_req = 155045 
total_req = 181657 

Dual Bus Interface Util: 
issued_total_row = 108458 
issued_total_col = 181657 
Row_Bus_Util =  0.049391 
CoL_Bus_Util = 0.082725 
Either_Row_CoL_Bus_Util = 0.129243 
Issued_on_Two_Bus_Simul_Util = 0.002873 
issued_two_Eff = 0.022226 
queue_avg = 6.724998 


dram_util_bins: 0 0 0 0 0 0 0 0 0 0
dram_eff_bins: 0 0 0 0 0 0 0 0 0 0
mrqq: max=64 avg=6.725
Memory Partition 10: 
Cache L2_bank_020:
MSHR contents

Cache L2_bank_021:
MSHR contents

In Dram Latency Queue (total = 0): 
DRAM[10]: 16 bks, busW=2 BL=16 CL=24, tRRD=12 tCCD=4, tRCD=24 tRAS=55 tRP=24 tRC=78
n_cmd=2195921 n_nop=1912601 n_act=54285 n_pre=54269 n_ref_event=0 n_req=154821 n_rd=142956 n_rd_L2_A=0 n_write=0 n_wr_bk=38403 bw_util=0.3304
n_activity=1727214 dram_eff=0.42
bk0: 9075a 1819807i bk1: 9073a 1815466i bk2: 8562a 1846489i bk3: 8607a 1844488i bk4: 8504a 1858013i bk5: 8528a 1842758i bk6: 8680a 1839137i bk7: 8595a 1840200i bk8: 9170a 1814564i bk9: 9128a 1814166i bk10: 9208a 1814063i bk11: 9128a 1817938i bk12: 8968a 1823572i bk13: 9153a 1812899i bk14: 9329a 1800164i bk15: 9248a 1818847i 

------------------------------------------------------------------------

Row_Buffer_Locality = 0.649369
Row_Buffer_Locality_read = 0.679174
Row_Buffer_Locality_write = 0.290266
Bank_Level_Parallism = 3.877626
Bank_Level_Parallism_Col = 2.860050
Bank_Level_Parallism_Ready = 1.614094
write_to_read_ratio_blp_rw_average = 0.227241
GrpLevelPara = 2.069893 

BW Util details:
bwutil = 0.330356 
total_CMD = 2195921 
util_bw = 725436 
Wasted_Col = 652942 
Wasted_Row = 202911 
Idle = 614632 

BW Util Bottlenecks: 
RCDc_limit = 698030 
RCDWRc_limit = 53979 
WTRc_limit = 264386 
RTWc_limit = 243246 
CCDLc_limit = 130661 
rwq = 0 
CCDLc_limit_alone = 100749 
WTRc_limit_alone = 249397 
RTWc_limit_alone = 228323 

Commands details: 
total_CMD = 2195921 
n_nop = 1912601 
Read = 142956 
Write = 0 
L2_Alloc = 0 
L2_WB = 38403 
n_act = 54285 
n_pre = 54269 
n_ref = 0 
n_req = 154821 
total_req = 181359 

Dual Bus Interface Util: 
issued_total_row = 108554 
issued_total_col = 181359 
Row_Bus_Util =  0.049434 
CoL_Bus_Util = 0.082589 
Either_Row_CoL_Bus_Util = 0.129021 
Issued_on_Two_Bus_Simul_Util = 0.003002 
issued_two_Eff = 0.023271 
queue_avg = 6.793955 


dram_util_bins: 0 0 0 0 0 0 0 0 0 0
dram_eff_bins: 0 0 0 0 0 0 0 0 0 0
mrqq: max=64 avg=6.79395
Memory Partition 11: 
Cache L2_bank_022:
MSHR contents

Cache L2_bank_023:
MSHR contents

In Dram Latency Queue (total = 0): 
DRAM[11]: 16 bks, busW=2 BL=16 CL=24, tRRD=12 tCCD=4, tRCD=24 tRAS=55 tRP=24 tRC=78
n_cmd=2195921 n_nop=1912740 n_act=54344 n_pre=54328 n_ref_event=0 n_req=154469 n_rd=142588 n_rd_L2_A=0 n_write=0 n_wr_bk=38403 bw_util=0.3297
n_activity=1729648 dram_eff=0.4186
bk0: 9247a 1828214i bk1: 9150a 1816761i bk2: 8587a 1852379i bk3: 8530a 1852631i bk4: 8448a 1858787i bk5: 8534a 1847269i bk6: 8554a 1848043i bk7: 8636a 1834728i bk8: 9131a 1814694i bk9: 9218a 1804475i bk10: 9027a 1822562i bk11: 8994a 1819572i bk12: 9027a 1825550i bk13: 8923a 1831004i bk14: 9287a 1827529i bk15: 9295a 1817703i 

------------------------------------------------------------------------

Row_Buffer_Locality = 0.648188
Row_Buffer_Locality_read = 0.678774
Row_Buffer_Locality_write = 0.281121
Bank_Level_Parallism = 3.806834
Bank_Level_Parallism_Col = 2.819892
Bank_Level_Parallism_Ready = 1.607327
write_to_read_ratio_blp_rw_average = 0.224307
GrpLevelPara = 2.051984 

BW Util details:
bwutil = 0.329686 
total_CMD = 2195921 
util_bw = 723964 
Wasted_Col = 659630 
Wasted_Row = 205264 
Idle = 607063 

BW Util Bottlenecks: 
RCDc_limit = 702619 
RCDWRc_limit = 53760 
WTRc_limit = 264381 
RTWc_limit = 242443 
CCDLc_limit = 131111 
rwq = 0 
CCDLc_limit_alone = 100507 
WTRc_limit_alone = 249318 
RTWc_limit_alone = 226902 

Commands details: 
total_CMD = 2195921 
n_nop = 1912740 
Read = 142588 
Write = 0 
L2_Alloc = 0 
L2_WB = 38403 
n_act = 54344 
n_pre = 54328 
n_ref = 0 
n_req = 154469 
total_req = 180991 

Dual Bus Interface Util: 
issued_total_row = 108672 
issued_total_col = 180991 
Row_Bus_Util =  0.049488 
CoL_Bus_Util = 0.082421 
Either_Row_CoL_Bus_Util = 0.128958 
Issued_on_Two_Bus_Simul_Util = 0.002952 
issued_two_Eff = 0.022890 
queue_avg = 6.707387 


dram_util_bins: 0 0 0 0 0 0 0 0 0 0
dram_eff_bins: 0 0 0 0 0 0 0 0 0 0
mrqq: max=64 avg=6.70739

========= L2 cache stats =========
L2_cache_bank[0]: Access = 226125, Miss = 87167, Miss_rate = 0.385, Pending_hits = 590, Reservation_fails = 0
L2_cache_bank[1]: Access = 221572, Miss = 88239, Miss_rate = 0.398, Pending_hits = 169, Reservation_fails = 758
L2_cache_bank[2]: Access = 222886, Miss = 88239, Miss_rate = 0.396, Pending_hits = 201, Reservation_fails = 46
L2_cache_bank[3]: Access = 222452, Miss = 87865, Miss_rate = 0.395, Pending_hits = 184, Reservation_fails = 1165
L2_cache_bank[4]: Access = 222764, Miss = 88288, Miss_rate = 0.396, Pending_hits = 578, Reservation_fails = 218
L2_cache_bank[5]: Access = 223370, Miss = 87503, Miss_rate = 0.392, Pending_hits = 185, Reservation_fails = 183
L2_cache_bank[6]: Access = 223397, Miss = 88121, Miss_rate = 0.394, Pending_hits = 209, Reservation_fails = 331
L2_cache_bank[7]: Access = 224591, Miss = 87845, Miss_rate = 0.391, Pending_hits = 187, Reservation_fails = 8
L2_cache_bank[8]: Access = 226345, Miss = 88376, Miss_rate = 0.390, Pending_hits = 637, Reservation_fails = 881
L2_cache_bank[9]: Access = 223589, Miss = 87444, Miss_rate = 0.391, Pending_hits = 197, Reservation_fails = 649
L2_cache_bank[10]: Access = 221699, Miss = 87159, Miss_rate = 0.393, Pending_hits = 171, Reservation_fails = 761
L2_cache_bank[11]: Access = 222955, Miss = 88090, Miss_rate = 0.395, Pending_hits = 189, Reservation_fails = 898
L2_cache_bank[12]: Access = 246173, Miss = 88096, Miss_rate = 0.358, Pending_hits = 584, Reservation_fails = 703
L2_cache_bank[13]: Access = 222671, Miss = 87500, Miss_rate = 0.393, Pending_hits = 187, Reservation_fails = 191
L2_cache_bank[14]: Access = 222391, Miss = 87446, Miss_rate = 0.393, Pending_hits = 176, Reservation_fails = 772
L2_cache_bank[15]: Access = 225153, Miss = 87791, Miss_rate = 0.390, Pending_hits = 192, Reservation_fails = 1111
L2_cache_bank[16]: Access = 227855, Miss = 88085, Miss_rate = 0.387, Pending_hits = 596, Reservation_fails = 563
L2_cache_bank[17]: Access = 223139, Miss = 88058, Miss_rate = 0.395, Pending_hits = 194, Reservation_fails = 642
L2_cache_bank[18]: Access = 221966, Miss = 87930, Miss_rate = 0.396, Pending_hits = 178, Reservation_fails = 272
L2_cache_bank[19]: Access = 222166, Miss = 87908, Miss_rate = 0.396, Pending_hits = 169, Reservation_fails = 139
L2_cache_bank[20]: Access = 224052, Miss = 87833, Miss_rate = 0.392, Pending_hits = 590, Reservation_fails = 458
L2_cache_bank[21]: Access = 221550, Miss = 87703, Miss_rate = 0.396, Pending_hits = 179, Reservation_fails = 684
L2_cache_bank[22]: Access = 222140, Miss = 87740, Miss_rate = 0.395, Pending_hits = 168, Reservation_fails = 0
L2_cache_bank[23]: Access = 222581, Miss = 87460, Miss_rate = 0.393, Pending_hits = 157, Reservation_fails = 614
L2_total_cache_accesses = 5383582
L2_total_cache_misses = 2107886
L2_total_cache_miss_rate = 0.3915
L2_total_cache_pending_hits = 6867
L2_total_cache_reservation_fails = 12047
L2_total_cache_breakdown:
	L2_cache_stats_breakdown[GLOBAL_ACC_R][HIT] = 2859478
	L2_cache_stats_breakdown[GLOBAL_ACC_R][HIT_RESERVED] = 6867
	L2_cache_stats_breakdown[GLOBAL_ACC_R][MISS] = 511158
	L2_cache_stats_breakdown[GLOBAL_ACC_R][RESERVATION_FAIL] = 12047
	L2_cache_stats_breakdown[GLOBAL_ACC_R][SECTOR_MISS] = 1204915
	L2_cache_stats_breakdown[GLOBAL_ACC_R][MSHR_HIT] = 6867
	L2_cache_stats_breakdown[LOCAL_ACC_R][HIT] = 0
	L2_cache_stats_breakdown[LOCAL_ACC_R][HIT_RESERVED] = 0
	L2_cache_stats_breakdown[LOCAL_ACC_R][MISS] = 0
	L2_cache_stats_breakdown[LOCAL_ACC_R][RESERVATION_FAIL] = 0
	L2_cache_stats_breakdown[LOCAL_ACC_R][SECTOR_MISS] = 0
	L2_cache_stats_breakdown[LOCAL_ACC_R][MSHR_HIT] = 0
	L2_cache_stats_breakdown[CONST_ACC_R][HIT] = 0
	L2_cache_stats_breakdown[CONST_ACC_R][HIT_RESERVED] = 0
	L2_cache_stats_breakdown[CONST_ACC_R][MISS] = 0
	L2_cache_stats_breakdown[CONST_ACC_R][RESERVATION_FAIL] = 0
	L2_cache_stats_breakdown[CONST_ACC_R][SECTOR_MISS] = 0
	L2_cache_stats_breakdown[CONST_ACC_R][MSHR_HIT] = 0
	L2_cache_stats_breakdown[TEXTURE_ACC_R][HIT] = 0
	L2_cache_stats_breakdown[TEXTURE_ACC_R][HIT_RESERVED] = 0
	L2_cache_stats_breakdown[TEXTURE_ACC_R][MISS] = 0
	L2_cache_stats_breakdown[TEXTURE_ACC_R][RESERVATION_FAIL] = 0
	L2_cache_stats_breakdown[TEXTURE_ACC_R][SECTOR_MISS] = 0
	L2_cache_stats_breakdown[TEXTURE_ACC_R][MSHR_HIT] = 0
	L2_cache_stats_breakdown[GLOBAL_ACC_W][HIT] = 409351
	L2_cache_stats_breakdown[GLOBAL_ACC_W][HIT_RESERVED] = 0
	L2_cache_stats_breakdown[GLOBAL_ACC_W][MISS] = 119733
	L2_cache_stats_breakdown[GLOBAL_ACC_W][RESERVATION_FAIL] = 0
	L2_cache_stats_breakdown[GLOBAL_ACC_W][SECTOR_MISS] = 272080
	L2_cache_stats_breakdown[GLOBAL_ACC_W][MSHR_HIT] = 0
	L2_cache_stats_breakdown[LOCAL_ACC_W][HIT] = 0
	L2_cache_stats_breakdown[LOCAL_ACC_W][HIT_RESERVED] = 0
	L2_cache_stats_breakdown[LOCAL_ACC_W][MISS] = 0
	L2_cache_stats_breakdown[LOCAL_ACC_W][RESERVATION_FAIL] = 0
	L2_cache_stats_breakdown[LOCAL_ACC_W][SECTOR_MISS] = 0
	L2_cache_stats_breakdown[LOCAL_ACC_W][MSHR_HIT] = 0
	L2_cache_stats_breakdown[L1_WRBK_ACC][HIT] = 0
	L2_cache_stats_breakdown[L1_WRBK_ACC][HIT_RESERVED] = 0
	L2_cache_stats_breakdown[L1_WRBK_ACC][MISS] = 0
	L2_cache_stats_breakdown[L1_WRBK_ACC][RESERVATION_FAIL] = 0
	L2_cache_stats_breakdown[L1_WRBK_ACC][SECTOR_MISS] = 0
	L2_cache_stats_breakdown[L1_WRBK_ACC][MSHR_HIT] = 0
	L2_cache_stats_breakdown[L2_WRBK_ACC][HIT] = 0
	L2_cache_stats_breakdown[L2_WRBK_ACC][HIT_RESERVED] = 0
	L2_cache_stats_breakdown[L2_WRBK_ACC][MISS] = 0
	L2_cache_stats_breakdown[L2_WRBK_ACC][RESERVATION_FAIL] = 0
	L2_cache_stats_breakdown[L2_WRBK_ACC][SECTOR_MISS] = 0
	L2_cache_stats_breakdown[L2_WRBK_ACC][MSHR_HIT] = 0
	L2_cache_stats_breakdown[INST_ACC_R][HIT] = 0
	L2_cache_stats_breakdown[INST_ACC_R][HIT_RESERVED] = 0
	L2_cache_stats_breakdown[INST_ACC_R][MISS] = 0
	L2_cache_stats_breakdown[INST_ACC_R][RESERVATION_FAIL] = 0
	L2_cache_stats_breakdown[INST_ACC_R][SECTOR_MISS] = 0
	L2_cache_stats_breakdown[INST_ACC_R][MSHR_HIT] = 0
	L2_cache_stats_breakdown[L1_WR_ALLOC_R][HIT] = 0
	L2_cache_stats_breakdown[L1_WR_ALLOC_R][HIT_RESERVED] = 0
	L2_cache_stats_breakdown[L1_WR_ALLOC_R][MISS] = 0
	L2_cache_stats_breakdown[L1_WR_ALLOC_R][RESERVATION_FAIL] = 0
	L2_cache_stats_breakdown[L1_WR_ALLOC_R][SECTOR_MISS] = 0
	L2_cache_stats_breakdown[L1_WR_ALLOC_R][MSHR_HIT] = 0
	L2_cache_stats_breakdown[L2_WR_ALLOC_R][HIT] = 0
	L2_cache_stats_breakdown[L2_WR_ALLOC_R][HIT_RESERVED] = 0
	L2_cache_stats_breakdown[L2_WR_ALLOC_R][MISS] = 0
	L2_cache_stats_breakdown[L2_WR_ALLOC_R][RESERVATION_FAIL] = 0
	L2_cache_stats_breakdown[L2_WR_ALLOC_R][SECTOR_MISS] = 0
	L2_cache_stats_breakdown[L2_WR_ALLOC_R][MSHR_HIT] = 0
	L2_cache_stats_breakdown[GLOBAL_ACC_R][TOTAL_ACCESS] = 4582418
	L2_cache_stats_breakdown[GLOBAL_ACC_W][TOTAL_ACCESS] = 801164
L2_total_cache_reservation_fail_breakdown:
	L2_cache_stats_fail_breakdown[GLOBAL_ACC_R][MSHR_ENRTY_FAIL] = 2619
	L2_cache_stats_fail_breakdown[GLOBAL_ACC_R][MSHR_MERGE_ENRTY_FAIL] = 9428
L2_cache_data_port_util = 0.163
L2_cache_fill_port_util = 0.084

icnt_total_pkts_mem_to_simt=5383582
icnt_total_pkts_simt_to_mem=5383582
LD_mem_lat_dist  0 0 0 0 0 0 0 0 0 0 0 0 0 0 0 0 0 0 0 0 0 0 0 0 0 0 0
ST_mem_lat_dist  0 0 0 0 0 0 0 0 0 0 0 0 0 0 0 0 0 0 0 0 0 0 0 0 0 0 0
----------------------------Interconnect-DETAILS--------------------------------
Req_Network_injected_packets_num = 5383582
Req_Network_cycles = 856302
Req_Network_injected_packets_per_cycle =       6.2870 
Req_Network_conflicts_per_cycle =       2.3050
Req_Network_conflicts_per_cycle_util =       2.7755
Req_Bank_Level_Parallism =       7.5702
Req_Network_in_buffer_full_per_cycle =       0.0000
Req_Network_in_buffer_avg_util =       4.7489
Req_Network_out_buffer_full_per_cycle =       0.0000
Req_Network_out_buffer_avg_util =       0.4008

Reply_Network_injected_packets_num = 5383582
Reply_Network_cycles = 856302
Reply_Network_injected_packets_per_cycle =        6.2870
Reply_Network_conflicts_per_cycle =        3.3849
Reply_Network_conflicts_per_cycle_util =       4.0556
Reply_Bank_Level_Parallism =       7.5328
Reply_Network_in_buffer_full_per_cycle =       0.0000
Reply_Network_in_buffer_avg_util =       1.0768
Reply_Network_out_buffer_full_per_cycle =       0.0000
Reply_Network_out_buffer_avg_util =       0.2096
----------------------------END-of-Interconnect-DETAILS-------------------------


gpgpu_simulation_time = 0 days, 0 hrs, 25 min, 44 sec (1544 sec)
gpgpu_simulation_rate = 106219 (inst/sec)
gpgpu_simulation_rate = 554 (cycle/sec)
gpgpu_silicon_slowdown = 2463898x
GPGPU-Sim: synchronize waiting for inactive GPU simulation
GPGPU-Sim API: Stream Manager State
GPGPU-Sim: detected inactive GPU simulation thread
number of iterations: 6
kernel + memcpy time 1543946.766138 ms
GPGPU-Sim: *** exit detected ***
