

        *** GPGPU-Sim Simulator Version 4.2.0  [build gpgpu-sim_git-commit-6b244a5d3be7811f16c312905c1c7fee137ac7a4_modified_0.0] ***


GPGPU-Sim PTX: simulation mode 0 (can change with PTX_SIM_MODE_FUNC environment variable:
               1=functional simulation only, 0=detailed performance simulator)
GPGPU-Sim PTX: overriding embedded ptx with ptx file (PTX_SIM_USE_PTX_FILE is set)
GPGPU-Sim: Configuration options:

-save_embedded_ptx                      0 # saves ptx files embedded in binary as <n>.ptx
-keep                                   0 # keep intermediate files created by GPGPU-Sim when interfacing with external programs
-gpgpu_ptx_save_converted_ptxplus                    0 # Saved converted ptxplus to a file
-gpgpu_occupancy_sm_number                   75 # The SM number to pass to ptxas when getting register usage for computing GPU occupancy. This parameter is required in the config.
-ptx_opcode_latency_int           4,4,4,4,21 # Opcode latencies for integers <ADD,MAX,MUL,MAD,DIV,SHFL>Default 1,1,19,25,145,32
-ptx_opcode_latency_fp           4,4,4,4,39 # Opcode latencies for single precision floating points <ADD,MAX,MUL,MAD,DIV>Default 1,1,1,1,30
-ptx_opcode_latency_dp      64,64,64,64,330 # Opcode latencies for double precision floating points <ADD,MAX,MUL,MAD,DIV>Default 8,8,8,8,335
-ptx_opcode_latency_sfu                   21 # Opcode latencies for SFU instructionsDefault 8
-ptx_opcode_latency_tesnor                   64 # Opcode latencies for Tensor instructionsDefault 64
-ptx_opcode_initiation_int            2,2,2,2,2 # Opcode initiation intervals for integers <ADD,MAX,MUL,MAD,DIV,SHFL>Default 1,1,4,4,32,4
-ptx_opcode_initiation_fp            2,2,2,2,4 # Opcode initiation intervals for single precision floating points <ADD,MAX,MUL,MAD,DIV>Default 1,1,1,1,5
-ptx_opcode_initiation_dp      64,64,64,64,130 # Opcode initiation intervals for double precision floating points <ADD,MAX,MUL,MAD,DIV>Default 8,8,8,8,130
-ptx_opcode_initiation_sfu                    8 # Opcode initiation intervals for sfu instructionsDefault 8
-ptx_opcode_initiation_tensor                   64 # Opcode initiation intervals for tensor instructionsDefault 64
-cdp_latency         7200,8000,100,12000,1600 # CDP API latency <cudaStreamCreateWithFlags, cudaGetParameterBufferV2_init_perWarp, cudaGetParameterBufferV2_perKernel, cudaLaunchDeviceV2_init_perWarp, cudaLaunchDevicV2_perKernel>Default 7200,8000,100,12000,1600
-network_mode                           2 # Interconnection network mode
-inter_config_file                   mesh # Interconnection network config file
-icnt_in_buffer_limit                  512 # in_buffer_limit
-icnt_out_buffer_limit                  512 # out_buffer_limit
-icnt_subnets                           2 # subnets
-icnt_arbiter_algo                      1 # arbiter_algo
-icnt_verbose                           0 # inct_verbose
-icnt_grant_cycles                      1 # grant_cycles
-gpgpu_ptx_use_cuobjdump                    1 # Use cuobjdump to extract ptx and sass from binaries
-gpgpu_experimental_lib_support                    0 # Try to extract code from cuda libraries [Broken because of unknown cudaGetExportTable]
-checkpoint_option                      0 #  checkpointing flag (0 = no checkpoint)
-checkpoint_kernel                      1 #  checkpointing during execution of which kernel (1- 1st kernel)
-checkpoint_CTA                         0 #  checkpointing after # of CTA (< less than total CTA)
-resume_option                          0 #  resume flag (0 = no resume)
-resume_kernel                          0 #  Resume from which kernel (1= 1st kernel)
-resume_CTA                             0 #  resume from which CTA 
-checkpoint_CTA_t                       0 #  resume from which CTA 
-checkpoint_insn_Y                      0 #  resume from which CTA 
-gpgpu_ptx_convert_to_ptxplus                    0 # Convert SASS (native ISA) to ptxplus and run ptxplus
-gpgpu_ptx_force_max_capability                   75 # Force maximum compute capability
-gpgpu_ptx_inst_debug_to_file                    0 # Dump executed instructions' debug information to file
-gpgpu_ptx_inst_debug_file       inst_debug.txt # Executed instructions' debug output file
-gpgpu_ptx_inst_debug_thread_uid                    1 # Thread UID for executed instructions' debug output
-gpgpu_simd_model                       1 # 1 = post-dominator
-gpgpu_shader_core_pipeline              1024:32 # shader core pipeline config, i.e., {<nthread>:<warpsize>}
-gpgpu_tex_cache:l1  N:4:128:256,L:R:m:N:L,T:512:8,128:2 # per-shader L1 texture cache  (READ-ONLY) config  {<nsets>:<bsize>:<assoc>,<rep>:<wr>:<alloc>:<wr_alloc>,<mshr>:<N>:<merge>,<mq>:<rf>}
-gpgpu_const_cache:l1 N:128:64:8,L:R:f:N:L,S:2:64,4 # per-shader L1 constant memory cache  (READ-ONLY) config  {<nsets>:<bsize>:<assoc>,<rep>:<wr>:<alloc>:<wr_alloc>,<mshr>:<N>:<merge>,<mq>} 
-gpgpu_cache:il1     N:64:128:16,L:R:f:N:L,S:2:48,4 # shader L1 instruction cache config  {<nsets>:<bsize>:<assoc>,<rep>:<wr>:<alloc>:<wr_alloc>,<mshr>:<N>:<merge>,<mq>} 
-gpgpu_cache:dl1     S:4:128:64,L:T:m:L:L,A:256:32,16:0,32 # per-shader L1 data cache config  {<nsets>:<bsize>:<assoc>,<rep>:<wr>:<alloc>:<wr_alloc>,<mshr>:<N>:<merge>,<mq> | none}
-gpgpu_l1_cache_write_ratio                   25 # L1D write ratio
-gpgpu_l1_banks                         4 # The number of L1 cache banks
-gpgpu_l1_banks_byte_interleaving                   32 # l1 banks byte interleaving granularity
-gpgpu_l1_banks_hashing_function                    0 # l1 banks hashing function
-gpgpu_l1_latency                      32 # L1 Hit Latency
-gpgpu_smem_latency                    30 # smem Latency
-gpgpu_cache:dl1PrefL1                 none # per-shader L1 data cache config  {<nsets>:<bsize>:<assoc>,<rep>:<wr>:<alloc>:<wr_alloc>,<mshr>:<N>:<merge>,<mq> | none}
-gpgpu_cache:dl1PrefShared                 none # per-shader L1 data cache config  {<nsets>:<bsize>:<assoc>,<rep>:<wr>:<alloc>:<wr_alloc>,<mshr>:<N>:<merge>,<mq> | none}
-gpgpu_gmem_skip_L1D                    0 # global memory access skip L1D cache (implements -Xptxas -dlcm=cg, default=no skip)
-gpgpu_perfect_mem                      0 # enable perfect memory mode (no cache miss)
-n_regfile_gating_group                    4 # group of lanes that should be read/written together)
-gpgpu_clock_gated_reg_file                    0 # enable clock gated reg file for power calculations
-gpgpu_clock_gated_lanes                    0 # enable clock gated lanes for power calculations
-gpgpu_shader_registers                65536 # Number of registers per shader core. Limits number of concurrent CTAs. (default 8192)
-gpgpu_registers_per_block                65536 # Maximum number of registers per CTA. (default 8192)
-gpgpu_ignore_resources_limitation                    0 # gpgpu_ignore_resources_limitation (default 0)
-gpgpu_shader_cta                      16 # Maximum number of concurrent CTAs in shader (default 8)
-gpgpu_num_cta_barriers                   16 # Maximum number of named barriers per CTA (default 16)
-gpgpu_n_clusters                      30 # number of processing clusters
-gpgpu_n_cores_per_cluster                    1 # number of simd cores per cluster
-gpgpu_n_cluster_ejection_buffer_size                   32 # number of packets in ejection buffer
-gpgpu_n_ldst_response_buffer_size                    2 # number of response packets in ld/st unit ejection buffer
-gpgpu_shmem_per_block                49152 # Size of shared memory per thread block or CTA (default 48kB)
-gpgpu_shmem_size                   65536 # Size of shared memory per shader core (default 16kB)
-gpgpu_shmem_option                 32,64 # Option list of shared memory sizes
-gpgpu_unified_l1d_size                   96 # Size of unified data cache(L1D + shared memory) in KB
-gpgpu_adaptive_cache_config                    1 # adaptive_cache_config
-gpgpu_shmem_sizeDefault                65536 # Size of shared memory per shader core (default 16kB)
-gpgpu_shmem_size_PrefL1                16384 # Size of shared memory per shader core (default 16kB)
-gpgpu_shmem_size_PrefShared                16384 # Size of shared memory per shader core (default 16kB)
-gpgpu_shmem_num_banks                   32 # Number of banks in the shared memory in each shader core (default 16)
-gpgpu_shmem_limited_broadcast                    0 # Limit shared memory to do one broadcast per cycle (default on)
-gpgpu_shmem_warp_parts                    1 # Number of portions a warp is divided into for shared memory bank conflict check 
-gpgpu_mem_unit_ports                    1 # The number of memory transactions allowed per core cycle
-gpgpu_shmem_warp_parts                    1 # Number of portions a warp is divided into for shared memory bank conflict check 
-gpgpu_warpdistro_shader                   -1 # Specify which shader core to collect the warp size distribution from
-gpgpu_warp_issue_shader                    0 # Specify which shader core to collect the warp issue distribution from
-gpgpu_local_mem_map                    1 # Mapping from local memory space address to simulated GPU physical address space (default = enabled)
-gpgpu_num_reg_banks                    8 # Number of register banks (default = 8)
-gpgpu_reg_bank_use_warp_id                    0 # Use warp ID in mapping registers to banks (default = off)
-gpgpu_sub_core_model                    1 # Sub Core Volta/Pascal model (default = off)
-gpgpu_enable_specialized_operand_collector                    0 # enable_specialized_operand_collector
-gpgpu_operand_collector_num_units_sp                    4 # number of collector units (default = 4)
-gpgpu_operand_collector_num_units_dp                    0 # number of collector units (default = 0)
-gpgpu_operand_collector_num_units_sfu                    4 # number of collector units (default = 4)
-gpgpu_operand_collector_num_units_int                    0 # number of collector units (default = 0)
-gpgpu_operand_collector_num_units_tensor_core                    4 # number of collector units (default = 4)
-gpgpu_operand_collector_num_units_mem                    2 # number of collector units (default = 2)
-gpgpu_operand_collector_num_units_gen                    8 # number of collector units (default = 0)
-gpgpu_operand_collector_num_in_ports_sp                    1 # number of collector unit in ports (default = 1)
-gpgpu_operand_collector_num_in_ports_dp                    0 # number of collector unit in ports (default = 0)
-gpgpu_operand_collector_num_in_ports_sfu                    1 # number of collector unit in ports (default = 1)
-gpgpu_operand_collector_num_in_ports_int                    0 # number of collector unit in ports (default = 0)
-gpgpu_operand_collector_num_in_ports_tensor_core                    1 # number of collector unit in ports (default = 1)
-gpgpu_operand_collector_num_in_ports_mem                    1 # number of collector unit in ports (default = 1)
-gpgpu_operand_collector_num_in_ports_gen                    8 # number of collector unit in ports (default = 0)
-gpgpu_operand_collector_num_out_ports_sp                    1 # number of collector unit in ports (default = 1)
-gpgpu_operand_collector_num_out_ports_dp                    0 # number of collector unit in ports (default = 0)
-gpgpu_operand_collector_num_out_ports_sfu                    1 # number of collector unit in ports (default = 1)
-gpgpu_operand_collector_num_out_ports_int                    0 # number of collector unit in ports (default = 0)
-gpgpu_operand_collector_num_out_ports_tensor_core                    1 # number of collector unit in ports (default = 1)
-gpgpu_operand_collector_num_out_ports_mem                    1 # number of collector unit in ports (default = 1)
-gpgpu_operand_collector_num_out_ports_gen                    8 # number of collector unit in ports (default = 0)
-gpgpu_coalesce_arch                   75 # Coalescing arch (GT200 = 13, Fermi = 20)
-gpgpu_num_sched_per_core                    4 # Number of warp schedulers per core
-gpgpu_max_insn_issue_per_warp                    1 # Max number of instructions that can be issued per warp in one cycle by scheduler (either 1 or 2)
-gpgpu_dual_issue_diff_exec_units                    1 # should dual issue use two different execution unit resources (Default = 1)
-gpgpu_simt_core_sim_order                    1 # Select the simulation order of cores in a cluster (0=Fix, 1=Round-Robin)
-gpgpu_pipeline_widths 4,4,4,4,4,4,4,4,4,4,8,4,4 # Pipeline widths ID_OC_SP,ID_OC_DP,ID_OC_INT,ID_OC_SFU,ID_OC_MEM,OC_EX_SP,OC_EX_DP,OC_EX_INT,OC_EX_SFU,OC_EX_MEM,EX_WB,ID_OC_TENSOR_CORE,OC_EX_TENSOR_CORE
-gpgpu_tensor_core_avail                    1 # Tensor Core Available (default=0)
-gpgpu_num_sp_units                     4 # Number of SP units (default=1)
-gpgpu_num_dp_units                     4 # Number of DP units (default=0)
-gpgpu_num_int_units                    4 # Number of INT units (default=0)
-gpgpu_num_sfu_units                    4 # Number of SF units (default=1)
-gpgpu_num_tensor_core_units                    4 # Number of tensor_core units (default=1)
-gpgpu_num_mem_units                    1 # Number if ldst units (default=1) WARNING: not hooked up to anything
-gpgpu_scheduler                      lrr # Scheduler configuration: < lrr | gto | two_level_active > If two_level_active:<num_active_warps>:<inner_prioritization>:<outer_prioritization>For complete list of prioritization values see shader.h enum scheduler_prioritization_typeDefault: gto
-gpgpu_concurrent_kernel_sm                    0 # Support concurrent kernels on a SM (default = disabled)
-gpgpu_perfect_inst_const_cache                    1 # perfect inst and const cache mode, so all inst and const hits in the cache(default = disabled)
-gpgpu_inst_fetch_throughput                    4 # the number of fetched intruction per warp each cycle
-gpgpu_reg_file_port_throughput                    2 # the number ports of the register file
-specialized_unit_1         0,4,4,4,4,BRA # specialized unit config {<enabled>,<num_units>:<latency>:<initiation>,<ID_OC_SPEC>:<OC_EX_SPEC>,<NAME>}
-specialized_unit_2         0,4,4,4,4,BRA # specialized unit config {<enabled>,<num_units>:<latency>:<initiation>,<ID_OC_SPEC>:<OC_EX_SPEC>,<NAME>}
-specialized_unit_3         0,4,4,4,4,BRA # specialized unit config {<enabled>,<num_units>:<latency>:<initiation>,<ID_OC_SPEC>:<OC_EX_SPEC>,<NAME>}
-specialized_unit_4         0,4,4,4,4,BRA # specialized unit config {<enabled>,<num_units>:<latency>:<initiation>,<ID_OC_SPEC>:<OC_EX_SPEC>,<NAME>}
-specialized_unit_5         0,4,4,4,4,BRA # specialized unit config {<enabled>,<num_units>:<latency>:<initiation>,<ID_OC_SPEC>:<OC_EX_SPEC>,<NAME>}
-specialized_unit_6         0,4,4,4,4,BRA # specialized unit config {<enabled>,<num_units>:<latency>:<initiation>,<ID_OC_SPEC>:<OC_EX_SPEC>,<NAME>}
-specialized_unit_7         0,4,4,4,4,BRA # specialized unit config {<enabled>,<num_units>:<latency>:<initiation>,<ID_OC_SPEC>:<OC_EX_SPEC>,<NAME>}
-specialized_unit_8         0,4,4,4,4,BRA # specialized unit config {<enabled>,<num_units>:<latency>:<initiation>,<ID_OC_SPEC>:<OC_EX_SPEC>,<NAME>}
-gpgpu_perf_sim_memcpy                    1 # Fill the L2 cache on memcpy
-gpgpu_simple_dram_model                    0 # simple_dram_model with fixed latency and BW
-gpgpu_dram_scheduler                    1 # 0 = fifo, 1 = FR-FCFS (defaul)
-gpgpu_dram_partition_queues          64:64:64:64 # i2$:$2d:d2$:$2i
-l2_ideal                               0 # Use a ideal L2 cache that always hit
-gpgpu_cache:dl2     S:64:128:16,L:B:m:L:P,A:192:4,32:0,32 # unified banked L2 data cache config  {<nsets>:<bsize>:<assoc>,<rep>:<wr>:<alloc>:<wr_alloc>,<mshr>:<N>:<merge>,<mq>}
-gpgpu_cache:dl2_texture_only                    0 # L2 cache used for texture only
-gpgpu_n_mem                           12 # number of memory modules (e.g. memory controllers) in gpu
-gpgpu_n_sub_partition_per_mchannel                    2 # number of memory subpartition in each memory module
-gpgpu_n_mem_per_ctrlr                    1 # number of memory chips per memory controller
-gpgpu_memlatency_stat                   14 # track and display latency statistics 0x2 enables MC, 0x4 enables queue logs
-gpgpu_frfcfs_dram_sched_queue_size                   64 # 0 = unlimited (default); # entries per chip
-gpgpu_dram_return_queue_size                  192 # 0 = unlimited (default); # entries per chip
-gpgpu_dram_buswidth                    2 # default = 4 bytes (8 bytes per cycle at DDR)
-gpgpu_dram_burst_length                   16 # Burst length of each DRAM request (default = 4 data bus cycle)
-dram_data_command_freq_ratio                    4 # Frequency ratio between DRAM data bus and command bus (default = 2 times, i.e. DDR)
-gpgpu_dram_timing_opt nbk=16:CCD=4:RRD=12:RCD=24:RAS=55:RP=24:RC=78:CL=24:WL=8:CDLR=10:WR=24:nbkgrp=4:CCDL=6:RTPL=4 # DRAM timing parameters = {nbk:tCCD:tRRD:tRCD:tRAS:tRP:tRC:CL:WL:tCDLR:tWR:nbkgrp:tCCDL:tRTPL}
-gpgpu_l2_rop_latency                  194 # ROP queue latency (default 85)
-dram_latency                          96 # DRAM latency (default 30)
-dram_dual_bus_interface                    0 # dual_bus_interface (default = 0) 
-dram_bnk_indexing_policy                    0 # dram_bnk_indexing_policy (0 = normal indexing, 1 = Xoring with the higher bits) (Default = 0)
-dram_bnkgrp_indexing_policy                    1 # dram_bnkgrp_indexing_policy (0 = take higher bits, 1 = take lower bits) (Default = 0)
-dram_seperate_write_queue_enable                    0 # Seperate_Write_Queue_Enable
-dram_write_queue_size             32:28:16 # Write_Queue_Size
-dram_elimnate_rw_turnaround                    0 # elimnate_rw_turnaround i.e set tWTR and tRTW = 0
-icnt_flit_size                        40 # icnt_flit_size
-gpgpu_mem_addr_mapping dramid@8;00000000.00000000.00000000.00000000.0000RRRR.RRRRRRRR.RBBBCCCC.BCCSSSSS # mapping memory address to dram model {dramid@<start bit>;<memory address map>}
-gpgpu_mem_addr_test                    0 # run sweep test to check address mapping for aliased address
-gpgpu_mem_address_mask                    1 # 0 = old addressing mask, 1 = new addressing mask, 2 = new add. mask + flipped bank sel and chip sel bits
-gpgpu_memory_partition_indexing                    0 # 0 = no indexing, 1 = bitwise xoring, 2 = IPoly, 3 = custom indexing
-accelwattch_xml_file accelwattch_sass_sim.xml # AccelWattch XML file
-power_simulation_enabled                    0 # Turn on power simulator (1=On, 0=Off)
-power_per_cycle_dump                    0 # Dump detailed power output each cycle
-hw_perf_file_name            hw_perf.csv # Hardware Performance Statistics file
-hw_perf_bench_name                       # Kernel Name in Hardware Performance Statistics file
-power_simulation_mode                    0 # Switch performance counter input for power simulation (0=Sim, 1=HW, 2=HW-Sim Hybrid)
-dvfs_enabled                           0 # Turn on DVFS for power model
-aggregate_power_stats                    0 # Accumulate power across all kernels
-accelwattch_hybrid_perfsim_L1_RH                    0 # Get L1 Read Hits for Accelwattch-Hybrid from Accel-Sim
-accelwattch_hybrid_perfsim_L1_RM                    0 # Get L1 Read Misses for Accelwattch-Hybrid from Accel-Sim
-accelwattch_hybrid_perfsim_L1_WH                    0 # Get L1 Write Hits for Accelwattch-Hybrid from Accel-Sim
-accelwattch_hybrid_perfsim_L1_WM                    0 # Get L1 Write Misses for Accelwattch-Hybrid from Accel-Sim
-accelwattch_hybrid_perfsim_L2_RH                    0 # Get L2 Read Hits for Accelwattch-Hybrid from Accel-Sim
-accelwattch_hybrid_perfsim_L2_RM                    0 # Get L2 Read Misses for Accelwattch-Hybrid from Accel-Sim
-accelwattch_hybrid_perfsim_L2_WH                    0 # Get L2 Write Hits for Accelwattch-Hybrid from Accel-Sim
-accelwattch_hybrid_perfsim_L2_WM                    0 # Get L2 Write Misses for Accelwattch-Hybrid from Accel-Sim
-accelwattch_hybrid_perfsim_CC_ACC                    0 # Get Constant Cache Acesses for Accelwattch-Hybrid from Accel-Sim
-accelwattch_hybrid_perfsim_SHARED_ACC                    0 # Get Shared Memory Acesses for Accelwattch-Hybrid from Accel-Sim
-accelwattch_hybrid_perfsim_DRAM_RD                    0 # Get DRAM Reads for Accelwattch-Hybrid from Accel-Sim
-accelwattch_hybrid_perfsim_DRAM_WR                    0 # Get DRAM Writes for Accelwattch-Hybrid from Accel-Sim
-accelwattch_hybrid_perfsim_NOC                    0 # Get Interconnect Acesses for Accelwattch-Hybrid from Accel-Sim
-accelwattch_hybrid_perfsim_PIPE_DUTY                    0 # Get Pipeline Duty Cycle Acesses for Accelwattch-Hybrid from Accel-Sim
-accelwattch_hybrid_perfsim_NUM_SM_IDLE                    0 # Get Number of Idle SMs for Accelwattch-Hybrid from Accel-Sim
-accelwattch_hybrid_perfsim_CYCLES                    0 # Get Executed Cycles for Accelwattch-Hybrid from Accel-Sim
-accelwattch_hybrid_perfsim_VOLTAGE                    0 # Get Chip Voltage for Accelwattch-Hybrid from Accel-Sim
-power_trace_enabled                    0 # produce a file for the power trace (1=On, 0=Off)
-power_trace_zlevel                     6 # Compression level of the power trace output log (0=no comp, 9=highest)
-steady_power_levels_enabled                    0 # produce a file for the steady power levels (1=On, 0=Off)
-steady_state_definition                  8:4 # allowed deviation:number of samples
-gpgpu_max_cycle                        0 # terminates gpu simulation early (0 = no limit)
-gpgpu_max_insn                         0 # terminates gpu simulation early (0 = no limit)
-gpgpu_max_cta                          0 # terminates gpu simulation early (0 = no limit)
-gpgpu_max_completed_cta                    0 # terminates gpu simulation early (0 = no limit)
-gpgpu_runtime_stat                   500 # display runtime statistics such as dram utilization {<freq>:<flag>}
-liveness_message_freq                    1 # Minimum number of seconds between simulation liveness messages (0 = always print)
-gpgpu_compute_capability_major                    7 # Major compute capability version number
-gpgpu_compute_capability_minor                    5 # Minor compute capability version number
-gpgpu_flush_l1_cache                    1 # Flush L1 cache at the end of each kernel call
-gpgpu_flush_l2_cache                    0 # Flush L2 cache at the end of each kernel call
-gpgpu_deadlock_detect                    1 # Stop the simulation at deadlock (1=on (default), 0=off)
-gpgpu_ptx_instruction_classification                    0 # if enabled will classify ptx instruction types per kernel (Max 255 kernels now)
-gpgpu_ptx_sim_mode                     0 # Select between Performance (default) or Functional simulation (1)
-gpgpu_clock_domains 1365:1365:1365:3500.5 # Clock Domain Frequencies in MhZ {<Core Clock>:<ICNT Clock>:<L2 Clock>:<DRAM Clock>}
-gpgpu_max_concurrent_kernel                    8 # maximum kernels that can run concurrently on GPU
-gpgpu_cflog_interval                    0 # Interval between each snapshot in control flow logger
-visualizer_enabled                     0 # Turn on visualizer output (1=On, 0=Off)
-visualizer_outputfile                 NULL # Specifies the output log file for visualizer
-visualizer_zlevel                      6 # Compression level of the visualizer output log (0=no comp, 9=highest)
-gpgpu_stack_size_limit                 1024 # GPU thread stack size
-gpgpu_heap_size_limit              8388608 # GPU malloc heap size 
-gpgpu_runtime_sync_depth_limit                    2 # GPU device runtime synchronize depth
-gpgpu_runtime_pending_launch_count_limit                 2048 # GPU device runtime pending launch count
-trace_enabled                          0 # Turn on traces
-trace_components                    none # comma seperated list of traces to enable. Complete list found in trace_streams.tup. Default none
-trace_sampling_core                    0 # The core which is printed using CORE_DPRINTF. Default 0
-trace_sampling_memory_partition                   -1 # The memory partition which is printed using MEMPART_DPRINTF. Default -1 (i.e. all)
-enable_ptx_file_line_stats                    1 # Turn on PTX source line statistic profiling. (1 = On)
-ptx_line_stats_filename gpgpu_inst_stats.txt # Output file for PTX source line statistics.
-gpgpu_kernel_launch_latency                 5000 # Kernel launch latency in cycles. Default: 0
-gpgpu_cdp_enabled                      0 # Turn on CDP
-gpgpu_TB_launch_latency                    0 # thread block launch latency in cycles. Default: 0
DRAM Timing Options:
nbk                                    16 # number of banks
CCD                                     4 # column to column delay
RRD                                    12 # minimal delay between activation of rows in different banks
RCD                                    24 # row to column dela8e325894b03b8cb84b6af03b0d34d7e3  /benchmarks/graph_benchmarks_original/pannotia/color/color_max
Extracting PTX file and ptxas options    1: color_max.1.sm_52.ptx -arch=sm_52
y
RAS                                    55 # time needed to activate row
RP                                     24 # time needed to precharge (deactivate) row
RC                                     78 # row cycle time
CDLR                                   10 # switching from write to read (changes tWTR)
WR                                     24 # last data-in to row precharge
CL                                     24 # CAS latency
WL                                      8 # Write latency
nbkgrp                                  4 # number of bank groups
CCDL                                    6 # column to column delay between accesses to different bank groups
RTPL                                    4 # read to precharge delay between accesses to different bank groups
Total number of memory sub partition = 24
addr_dec_mask[CHIP]  = 0000000000000000 	high:64 low:0
addr_dec_mask[BK]    = 0000000000007080 	high:15 low:7
addr_dec_mask[ROW]   = 000000000fff8000 	high:28 low:15
addr_dec_mask[COL]   = 0000000000000f7f 	high:12 low:0
addr_dec_mask[BURST] = 000000000000001f 	high:5 low:0
sub_partition_id_mask = 0000000000000080
GPGPU-Sim uArch: clock freqs: 1365000000.000000:1365000000.000000:1365000000.000000:3500500000.000000
GPGPU-Sim uArch: clock periods: 0.00000000073260073260:0.00000000073260073260:0.00000000073260073260:0.00000000028567347522
*** Initializing Memory Statistics ***
GPGPU-Sim uArch: performance model initialization complete.
self exe links to: /benchmarks/graph_benchmarks_original/pannotia/color/color_max
self exe links to: /benchmarks/graph_benchmarks_original/pannotia/color/color_max
11.0
GPGPU-Sim PTX: __cudaRegisterFatBinary, fat_cubin_handle = 1, filename=default
self exe links to: /benchmarks/graph_benchmarks_original/pannotia/color/color_max
Running md5sum using "md5sum /benchmarks/graph_benchmarks_original/pannotia/color/color_max "
self exe links to: /benchmarks/graph_benchmarks_original/pannotia/color/color_max
Extracting specific PTX file named color_max.1.sm_52.ptx 
GPGPU-Sim PTX: __cudaRegisterFunction _Z6color2PiS_S_iii : hostFun 0x0x55f82d401d60, fat_cubin_handle = 1
GPGPU-Sim PTX: Parsing color_max.1.sm_52.ptx
GPGPU-Sim PTX: instruction assembly for function '_Z6color1PiS_S_S_S_S_iii'...   done.
GPGPU-Sim PTX: instruction assembly for function '_Z6color2PiS_S_iii'...   done.
GPGPU-Sim PTX: finished parsing EMBEDDED .ptx file color_max.1.sm_52.ptx
GPGPU-Sim PTX: loading globals with explicit initializers... 
GPGPU-Sim PTX: finished loading globals (0 bytes total).
GPGPU-Sim PTX: loading constants with explicit initializers...  done.
GPGPU-Sim PTX: Loading PTXInfo from color_max.1.sm_52.ptx
GPGPU-Sim PTX: Kernel '_Z6color2PiS_S_iii' : regs=8, lmem=0, smem=0, cmem=356
GPGPU-Sim PTX: Kernel '_Z6color1PiS_S_S_S_S_iii' : regs=22, lmem=0, smem=0, cmem=380
GPGPU-Sim PTX: __cudaRegisterFunction _Z6color1PiS_S_S_S_S_iii : hostFun 0x0x55f82d401ba0, fat_cubin_handle = 1
Opening file: ../datasets/coAuthorsDBLP.graph
This is an undirected graph
Read from file: num_nodes = 299067, num_edges = 1955352
GPGPU-Sim PTX: Setting up arguments for 8 bytes starting at 0x7fff2726d738..
GPGPU-Sim PTX: Setting up arguments for 8 bytes starting at 0x7fff2726d730..
GPGPU-Sim PTX: Setting up arguments for 8 bytes starting at 0x7fff2726d728..
GPGPU-Sim PTX: Setting up arguments for 8 bytes starting at 0x7fff2726d720..
GPGPU-Sim PTX: Setting up arguments for 8 bytes starting at 0x7fff2726d718..
GPGPU-Sim PTX: Setting up arguments for 8 bytes starting at 0x7fff2726d710..
GPGPU-Sim PTX: Setting up arguments for 4 bytes starting at 0x7fff2726d7e0..
GPGPU-Sim PTX: Setting up arguments for 4 bytes starting at 0x7fff2726d7e8..
GPGPU-Sim PTX: Setting up arguments for 4 bytes starting at 0x7fff2726d7f0..

GPGPU-Sim PTX: cudaLaunch for 0x0x55f82d401ba0 (mode=performance simulation) on stream 0
GPGPU-Sim PTX: finding reconvergence points for '_Z6color1PiS_S_S_S_S_iii'...
GPGPU-Sim PTX: Finding dominators for '_Z6color1PiS_S_S_S_S_iii'...
GPGPU-Sim PTX: Finding immediate dominators for '_Z6color1PiS_S_S_S_S_iii'...
GPGPU-Sim PTX: Finding postdominators for '_Z6color1PiS_S_S_S_S_iii'...
GPGPU-Sim PTX: Finding immediate postdominators for '_Z6color1PiS_S_S_S_S_iii'...
GPGPU-Sim PTX: pre-decoding instructions for '_Z6color1PiS_S_S_S_S_iii'...
GPGPU-Sim PTX: reconvergence points for _Z6color1PiS_S_S_S_S_iii...
GPGPU-Sim PTX:  1 (potential) branch divergence @  PC=0x088 (color_max.1.sm_52.ptx:49) @%p1 bra BB0_29;
GPGPU-Sim PTX:    immediate post dominator      @  PC=0x5b0 (color_max.1.sm_52.ptx:264) ret;
GPGPU-Sim PTX:  2 (potential) branch divergence @  PC=0x0b0 (color_max.1.sm_52.ptx:55) @%p2 bra BB0_29;
GPGPU-Sim PTX:    immediate post dominator      @  PC=0x5b0 (color_max.1.sm_52.ptx:264) ret;
GPGPU-Sim PTX:  3 (potential) branch divergence @  PC=0x0e0 (color_max.1.sm_52.ptx:62) @%p3 bra BB0_4;
GPGPU-Sim PTX:    immediate post dominator      @  PC=0x0f0 (color_max.1.sm_52.ptx:67) mov.u32 %r98, -1;
GPGPU-Sim PTX:  4 (potential) branch divergence @  PC=0x100 (color_max.1.sm_52.ptx:69) @%p4 bra BB0_28;
GPGPU-Sim PTX:    immediate post dominator      @  PC=0x598 (color_max.1.sm_52.ptx:259) cvta.to.global.u64 %rd54, %rd13;
GPGPU-Sim PTX:  5 (potential) branch divergence @  PC=0x140 (color_max.1.sm_52.ptx:78) @%p5 bra BB0_17;
GPGPU-Sim PTX:    immediate post dominator      @  PC=0x368 (color_max.1.sm_52.ptx:168) setp.lt.u32%p17, %r6, 4;
GPGPU-Sim PTX:  6 (potential) branch divergence @  PC=0x160 (color_max.1.sm_52.ptx:83) @%p6 bra BB0_14;
GPGPU-Sim PTX:    immediate post dominator      @  PC=0x2c8 (color_max.1.sm_52.ptx:142) mul.wide.s32 %rd32, %r90, 4;
GPGPU-Sim PTX:  7 (potential) branch divergence @  PC=0x180 (color_max.1.sm_52.ptx:88) @%p7 bra BB0_11;
GPGPU-Sim PTX:    immediate post dominator      @  PC=0x230 (color_max.1.sm_52.ptx:117) mul.wide.s32 %rd27, %r87, 4;
GPGPU-Sim PTX:  8 (potential) branch divergence @  PC=0x1d8 (color_max.1.sm_52.ptx:100) @!%p10 bra BB0_10;
GPGPU-Sim PTX:    immediate post dominator      @  PC=0x228 (color_max.1.sm_52.ptx:114) add.s32 %r87, %r2, 1;
GPGPU-Sim PTX:  9 (potential) branch divergence @  PC=0x1e0 (color_max.1.sm_52.ptx:101) bra.uni BB0_9;
GPGPU-Sim PTX:    immediate post dominator      @  PC=0x1e8 (color_max.1.sm_52.ptx:104) mov.u32 %r51, 1;
GPGPU-Sim PTX: 10 (potential) branch divergence @  PC=0x278 (color_max.1.sm_52.ptx:126) @!%p13 bra BB0_13;
GPGPU-Sim PTX:    immediate post dominator      @  PC=0x2c0 (color_max.1.sm_52.ptx:139) add.s32 %r90, %r87, 1;
GPGPU-Sim PTX: 11 (potential) branch divergence @  PC=0x280 (color_max.1.sm_52.ptx:127) bra.uni BB0_12;
GPGPU-Sim PTX:    immediate post dominator      @  PC=0x288 (color_max.1.sm_52.ptx:130) mov.u32 %r57, 1;
GPGPU-Sim PTX: 12 (potential) branch divergence @  PC=0x310 (color_max.1.sm_52.ptx:151) @!%p16 bra BB0_16;
GPGPU-Sim PTX:    immediate post dominator      @  PC=0x358 (color_max.1.sm_52.ptx:164) add.s32 %r96, %r90, 1;
GPGPU-Sim PTX: 13 (potential) branch divergence @  PC=0x318 (color_max.1.sm_52.ptx:152) bra.uni BB0_15;
GPGPU-Sim PTX:    immediate post dominator      @  PC=0x320 (color_max.1.sm_52.ptx:155) mov.u32 %r62, 1;
GPGPU-Sim PTX: 14 (potential) branch divergence @  PC=0x370 (color_max.1.sm_52.ptx:169) @%p17 bra BB0_28;
GPGPU-Sim PTX:    immediate post dominator      @  PC=0x598 (color_max.1.sm_52.ptx:259) cvta.to.global.u64 %rd54, %rd13;
GPGPU-Sim PTX: 15 (potential) branch divergence @  PC=0x3c8 (color_max.1.sm_52.ptx:183) @!%p20 bra BB0_21;
GPGPU-Sim PTX:    immediate post dominator      @  PC=0x410 (color_max.1.sm_52.ptx:196) ld.global.u32 %r70, [%rd57+4];
GPGPU-Sim PTX: 16 (potential) branch divergence @  PC=0x3d0 (color_max.1.sm_52.ptx:184) bra.uni BB0_20;
GPGPU-Sim PTX:    immediate post dominator      @  PC=0x3d8 (color_max.1.sm_52.ptx:187) mov.u32 %r67, 1;
GPGPU-Sim PTX: 17 (potential) branch divergence @  PC=0x440 (color_max.1.sm_52.ptx:202) @!%p23 bra BB0_23;
GPGPU-Sim PTX:    immediate post dominator      @  PC=0x488 (color_max.1.sm_52.ptx:215) ld.global.u32 %r75, [%rd57+8];
GPGPU-Sim PTX: 18 (potential) branch divergence @  PC=0x448 (color_max.1.sm_52.ptx:203) bra.uni BB0_22;
GPGPU-Sim PTX:    immediate post dominator      @  PC=0x450 (color_max.1.sm_52.ptx:206) mov.u32 %r72, 1;
GPGPU-Sim PTX: 19 (potential) branch divergence @  PC=0x4b8 (color_max.1.sm_52.ptx:221) @!%p26 bra BB0_25;
GPGPU-Sim PTX:    immediate post dominator      @  PC=0x500 (color_max.1.sm_52.ptx:234) ld.global.u32 %r80, [%rd57+12];
GPGPU-Sim PTX: 20 (potential) branch divergence @  PC=0x4c0 (color_max.1.sm_52.ptx:222) bra.uni BB0_24;
GPGPU-Sim PTX:    immediate post dominator      @  PC=0x4c8 (color_max.1.sm_52.ptx:225) mov.u32 %r77, 1;
GPGPU-Sim PTX: 21 (potential) branch divergence @  PC=0x530 (color_max.1.sm_52.ptx:240) @!%p29 bra BB0_27;
GPGPU-Sim PTX:    immediate post dominator      @  PC=0x578 (color_max.1.sm_52.ptx:253) add.s32 %r96, %r96, 4;
GPGPU-Sim PTX: 22 (potential) branch divergence @  PC=0x538 (color_max.1.sm_52.ptx:241) bra.uni BB0_26;
GPGPU-Sim PTX:    immediate post dominator      @  PC=0x540 (color_max.1.sm_52.ptx:244) mov.u32 %r82, 1;
GPGPU-Sim PTX: 23 (potential) branch divergence @  PC=0x590 (color_max.1.sm_52.ptx:256) @%p30 bra BB0_19;
GPGPU-Sim PTX:    immediate post dominator      @  PC=0x598 (color_max.1.sm_52.ptx:259) cvta.to.global.u64 %rd54, %rd13;
GPGPU-Sim PTX: ... end of reconvergence points for _Z6color1PiS_S_S_S_S_iii
GPGPU-Sim PTX: ... done pre-decoding instructions for '_Z6color1PiS_S_S_S_S_iii'.
GPGPU-Sim PTX: pushing kernel '_Z6color1PiS_S_S_S_S_iii' to stream 0, gridDim= (1169,1,1) blockDim = (256,1,1) 
GPGPU-Sim uArch: Shader 0 bind to kernel 1 '_Z6color1PiS_S_S_S_S_iii'
GPGPU-Sim uArch: CTA/core = 4, limited by: threads
GPGPU-Sim: Reconfigure L1 cache to 64KB
GPGPU-Sim uArch: Shader 1 bind to kernel 1 '_Z6color1PiS_S_S_S_S_iii'
GPGPU-Sim uArch: Shader 2 bind to kernel 1 '_Z6color1PiS_S_S_S_S_iii'
GPGPU-Sim uArch: Shader 3 bind to kernel 1 '_Z6color1PiS_S_S_S_S_iii'
GPGPU-Sim uArch: Shader 4 bind to kernel 1 '_Z6color1PiS_S_S_S_S_iii'
GPGPU-Sim uArch: Shader 5 bind to kernel 1 '_Z6color1PiS_S_S_S_S_iii'
GPGPU-Sim uArch: Shader 6 bind to kernel 1 '_Z6color1PiS_S_S_S_S_iii'
GPGPU-Sim uArch: Shader 7 bind to kernel 1 '_Z6color1PiS_S_S_S_S_iii'
GPGPU-Sim uArch: Shader 8 bind to kernel 1 '_Z6color1PiS_S_S_S_S_iii'
GPGPU-Sim uArch: Shader 9 bind to kernel 1 '_Z6color1PiS_S_S_S_S_iii'
GPGPU-Sim uArch: Shader 10 bind to kernel 1 '_Z6color1PiS_S_S_S_S_iii'
GPGPU-Sim uArch: Shader 11 bind to kernel 1 '_Z6color1PiS_S_S_S_S_iii'
GPGPU-Sim uArch: Shader 12 bind to kernel 1 '_Z6color1PiS_S_S_S_S_iii'
GPGPU-Sim uArch: Shader 13 bind to kernel 1 '_Z6color1PiS_S_S_S_S_iii'
GPGPU-Sim uArch: Shader 14 bind to kernel 1 '_Z6color1PiS_S_S_S_S_iii'
GPGPU-Sim uArch: Shader 15 bind to kernel 1 '_Z6color1PiS_S_S_S_S_iii'
GPGPU-Sim uArch: Shader 16 bind to kernel 1 '_Z6color1PiS_S_S_S_S_iii'
GPGPU-Sim uArch: Shader 17 bind to kernel 1 '_Z6color1PiS_S_S_S_S_iii'
GPGPU-Sim uArch: Shader 18 bind to kernel 1 '_Z6color1PiS_S_S_S_S_iii'
GPGPU-Sim uArch: Shader 19 bind to kernel 1 '_Z6color1PiS_S_S_S_S_iii'
GPGPU-Sim uArch: Shader 20 bind to kernel 1 '_Z6color1PiS_S_S_S_S_iii'
GPGPU-Sim uArch: Shader 21 bind to kernel 1 '_Z6color1PiS_S_S_S_S_iii'
GPGPU-Sim uArch: Shader 22 bind to kernel 1 '_Z6color1PiS_S_S_S_S_iii'
GPGPU-Sim uArch: Shader 23 bind to kernel 1 '_Z6color1PiS_S_S_S_S_iii'
GPGPU-Sim uArch: Shader 24 bind to kernel 1 '_Z6color1PiS_S_S_S_S_iii'
GPGPU-Sim uArch: Shader 25 bind to kernel 1 '_Z6color1PiS_S_S_S_S_iii'
GPGPU-Sim uArch: Shader 26 bind to kernel 1 '_Z6color1PiS_S_S_S_S_iii'
GPGPU-Sim uArch: Shader 27 bind to kernel 1 '_Z6color1PiS_S_S_S_S_iii'
GPGPU-Sim uArch: Shader 28 bind to kernel 1 '_Z6color1PiS_S_S_S_S_iii'
GPGPU-Sim uArch: Shader 29 bind to kernel 1 '_Z6color1PiS_S_S_S_S_iii'
Destroy streams for kernel 1: size 0
kernel_name = _Z6color1PiS_S_S_S_S_iii 
kernel_launch_uid = 1 
gpu_sim_cycle = 409899
gpu_sim_insn = 45400761
gpu_ipc =     110.7608
gpu_tot_sim_cycle = 409899
gpu_tot_sim_insn = 45400761
gpu_tot_ipc =     110.7608
gpu_tot_issued_cta = 1169
gpu_occupancy = 69.0601% 
gpu_tot_occupancy = 69.0601% 
max_total_param_size = 0
gpu_stall_dramfull = 66
gpu_stall_icnt2sh    = 0
partiton_level_parallism =       7.5734
partiton_level_parallism_total  =       7.5734
partiton_level_parallism_util =       7.7669
partiton_level_parallism_util_total  =       7.7669
L2_BW  =     330.8053 GB/Sec
L2_BW_total  =     330.8053 GB/Sec
gpu_total_sim_rate=63675

========= Core cache stats =========
L1I_cache:
	L1I_total_cache_accesses = 0
	L1I_total_cache_misses = 0
	L1I_total_cache_pending_hits = 0
	L1I_total_cache_reservation_fails = 0
L1D_cache:
	L1D_cache_core[0]: Access = 201952, Miss = 93959, Miss_rate = 0.465, Pending_hits = 2611, Reservation_fails = 87288
	L1D_cache_core[1]: Access = 212343, Miss = 85237, Miss_rate = 0.401, Pending_hits = 2280, Reservation_fails = 70215
	L1D_cache_core[2]: Access = 225987, Miss = 94999, Miss_rate = 0.420, Pending_hits = 2545, Reservation_fails = 71092
	L1D_cache_core[3]: Access = 214963, Miss = 88887, Miss_rate = 0.413, Pending_hits = 2440, Reservation_fails = 79029
	L1D_cache_core[4]: Access = 237807, Miss = 99814, Miss_rate = 0.420, Pending_hits = 2781, Reservation_fails = 83464
	L1D_cache_core[5]: Access = 212605, Miss = 95459, Miss_rate = 0.449, Pending_hits = 2547, Reservation_fails = 84293
	L1D_cache_core[6]: Access = 207870, Miss = 90260, Miss_rate = 0.434, Pending_hits = 2262, Reservation_fails = 81588
	L1D_cache_core[7]: Access = 217885, Miss = 94992, Miss_rate = 0.436, Pending_hits = 2744, Reservation_fails = 75955
	L1D_cache_core[8]: Access = 219877, Miss = 99723, Miss_rate = 0.454, Pending_hits = 2627, Reservation_fails = 85251
	L1D_cache_core[9]: Access = 219441, Miss = 101688, Miss_rate = 0.463, Pending_hits = 2650, Reservation_fails = 85660
	L1D_cache_core[10]: Access = 212562, Miss = 88148, Miss_rate = 0.415, Pending_hits = 2410, Reservation_fails = 61737
	L1D_cache_core[11]: Access = 233342, Miss = 95095, Miss_rate = 0.408, Pending_hits = 2445, Reservation_fails = 93509
	L1D_cache_core[12]: Access = 194934, Miss = 89743, Miss_rate = 0.460, Pending_hits = 2687, Reservation_fails = 78980
	L1D_cache_core[13]: Access = 217449, Miss = 92508, Miss_rate = 0.425, Pending_hits = 2568, Reservation_fails = 77940
	L1D_cache_core[14]: Access = 237257, Miss = 99626, Miss_rate = 0.420, Pending_hits = 2844, Reservation_fails = 70196
	L1D_cache_core[15]: Access = 229221, Miss = 96829, Miss_rate = 0.422, Pending_hits = 2553, Reservation_fails = 70202
	L1D_cache_core[16]: Access = 211112, Miss = 90603, Miss_rate = 0.429, Pending_hits = 2528, Reservation_fails = 93344
	L1D_cache_core[17]: Access = 217548, Miss = 100551, Miss_rate = 0.462, Pending_hits = 2534, Reservation_fails = 100354
	L1D_cache_core[18]: Access = 202860, Miss = 87943, Miss_rate = 0.434, Pending_hits = 2375, Reservation_fails = 80297
	L1D_cache_core[19]: Access = 214456, Miss = 106591, Miss_rate = 0.497, Pending_hits = 2703, Reservation_fails = 106555
	L1D_cache_core[20]: Access = 216519, Miss = 100280, Miss_rate = 0.463, Pending_hits = 2680, Reservation_fails = 98268
	L1D_cache_core[21]: Access = 199196, Miss = 89705, Miss_rate = 0.450, Pending_hits = 2500, Reservation_fails = 87779
	L1D_cache_core[22]: Access = 216188, Miss = 97019, Miss_rate = 0.449, Pending_hits = 2480, Reservation_fails = 83340
	L1D_cache_core[23]: Access = 210585, Miss = 88646, Miss_rate = 0.421, Pending_hits = 2635, Reservation_fails = 81183
	L1D_cache_core[24]: Access = 213972, Miss = 90737, Miss_rate = 0.424, Pending_hits = 2511, Reservation_fails = 66334
	L1D_cache_core[25]: Access = 206300, Miss = 92342, Miss_rate = 0.448, Pending_hits = 2363, Reservation_fails = 69832
	L1D_cache_core[26]: Access = 222616, Miss = 95449, Miss_rate = 0.429, Pending_hits = 2698, Reservation_fails = 80723
	L1D_cache_core[27]: Access = 223961, Miss = 96291, Miss_rate = 0.430, Pending_hits = 2532, Reservation_fails = 84217
	L1D_cache_core[28]: Access = 221310, Miss = 103606, Miss_rate = 0.468, Pending_hits = 2769, Reservation_fails = 97019
	L1D_cache_core[29]: Access = 219610, Miss = 96680, Miss_rate = 0.440, Pending_hits = 2698, Reservation_fails = 82747
	L1D_total_cache_accesses = 6491728
	L1D_total_cache_misses = 2843410
	L1D_total_cache_miss_rate = 0.4380
	L1D_total_cache_pending_hits = 77000
	L1D_total_cache_reservation_fails = 2468391
	L1D_cache_data_port_util = 0.297
	L1D_cache_fill_port_util = 0.233
L1C_cache:
	L1C_total_cache_accesses = 0
	L1C_total_cache_misses = 0
	L1C_total_cache_pending_hits = 0
	L1C_total_cache_reservation_fails = 0
L1T_cache:
	L1T_total_cache_accesses = 0
	L1T_total_cache_misses = 0
	L1T_total_cache_pending_hits = 0
	L1T_total_cache_reservation_fails = 0

Total_core_cache_stats:
	Total_core_cache_stats_breakdown[GLOBAL_ACC_R][HIT] = 3310407
	Total_core_cache_stats_breakdown[GLOBAL_ACC_R][HIT_RESERVED] = 77000
	Total_core_cache_stats_breakdown[GLOBAL_ACC_R][MISS] = 2138129
	Total_core_cache_stats_breakdown[GLOBAL_ACC_R][RESERVATION_FAIL] = 2468290
	Total_core_cache_stats_breakdown[GLOBAL_ACC_R][SECTOR_MISS] = 667867
	Total_core_cache_stats_breakdown[GLOBAL_ACC_R][MSHR_HIT] = 77000
	Total_core_cache_stats_breakdown[LOCAL_ACC_R][HIT] = 0
	Total_core_cache_stats_breakdown[LOCAL_ACC_R][HIT_RESERVED] = 0
	Total_core_cache_stats_breakdown[LOCAL_ACC_R][MISS] = 0
	Total_core_cache_stats_breakdown[LOCAL_ACC_R][RESERVATION_FAIL] = 0
	Total_core_cache_stats_breakdown[LOCAL_ACC_R][SECTOR_MISS] = 0
	Total_core_cache_stats_breakdown[LOCAL_ACC_R][MSHR_HIT] = 0
	Total_core_cache_stats_breakdown[CONST_ACC_R][HIT] = 0
	Total_core_cache_stats_breakdown[CONST_ACC_R][HIT_RESERVED] = 0
	Total_core_cache_stats_breakdown[CONST_ACC_R][MISS] = 0
	Total_core_cache_stats_breakdown[CONST_ACC_R][RESERVATION_FAIL] = 0
	Total_core_cache_stats_breakdown[CONST_ACC_R][SECTOR_MISS] = 0
	Total_core_cache_stats_breakdown[CONST_ACC_R][MSHR_HIT] = 0
	Total_core_cache_stats_breakdown[TEXTURE_ACC_R][HIT] = 0
	Total_core_cache_stats_breakdown[TEXTURE_ACC_R][HIT_RESERVED] = 0
	Total_core_cache_stats_breakdown[TEXTURE_ACC_R][MISS] = 0
	Total_core_cache_stats_breakdown[TEXTURE_ACC_R][RESERVATION_FAIL] = 0
	Total_core_cache_stats_breakdown[TEXTURE_ACC_R][SECTOR_MISS] = 0
	Total_core_cache_stats_breakdown[TEXTURE_ACC_R][MSHR_HIT] = 0
	Total_core_cache_stats_breakdown[GLOBAL_ACC_W][HIT] = 260911
	Total_core_cache_stats_breakdown[GLOBAL_ACC_W][HIT_RESERVED] = 0
	Total_core_cache_stats_breakdown[GLOBAL_ACC_W][MISS] = 9376
	Total_core_cache_stats_breakdown[GLOBAL_ACC_W][RESERVATION_FAIL] = 101
	Total_core_cache_stats_breakdown[GLOBAL_ACC_W][SECTOR_MISS] = 28038
	Total_core_cache_stats_breakdown[GLOBAL_ACC_W][MSHR_HIT] = 0
	Total_core_cache_stats_breakdown[LOCAL_ACC_W][HIT] = 0
	Total_core_cache_stats_breakdown[LOCAL_ACC_W][HIT_RESERVED] = 0
	Total_core_cache_stats_breakdown[LOCAL_ACC_W][MISS] = 0
	Total_core_cache_stats_breakdown[LOCAL_ACC_W][RESERVATION_FAIL] = 0
	Total_core_cache_stats_breakdown[LOCAL_ACC_W][SECTOR_MISS] = 0
	Total_core_cache_stats_breakdown[LOCAL_ACC_W][MSHR_HIT] = 0
	Total_core_cache_stats_breakdown[L1_WRBK_ACC][HIT] = 0
	Total_core_cache_stats_breakdown[L1_WRBK_ACC][HIT_RESERVED] = 0
	Total_core_cache_stats_breakdown[L1_WRBK_ACC][MISS] = 0
	Total_core_cache_stats_breakdown[L1_WRBK_ACC][RESERVATION_FAIL] = 0
	Total_core_cache_stats_breakdown[L1_WRBK_ACC][SECTOR_MISS] = 0
	Total_core_cache_stats_breakdown[L1_WRBK_ACC][MSHR_HIT] = 0
	Total_core_cache_stats_breakdown[L2_WRBK_ACC][HIT] = 0
	Total_core_cache_stats_breakdown[L2_WRBK_ACC][HIT_RESERVED] = 0
	Total_core_cache_stats_breakdown[L2_WRBK_ACC][MISS] = 0
	Total_core_cache_stats_breakdown[L2_WRBK_ACC][RESERVATION_FAIL] = 0
	Total_core_cache_stats_breakdown[L2_WRBK_ACC][SECTOR_MISS] = 0
	Total_core_cache_stats_breakdown[L2_WRBK_ACC][MSHR_HIT] = 0
	Total_core_cache_stats_breakdown[INST_ACC_R][HIT] = 0
	Total_core_cache_stats_breakdown[INST_ACC_R][HIT_RESERVED] = 0
	Total_core_cache_stats_breakdown[INST_ACC_R][MISS] = 0
	Total_core_cache_stats_breakdown[INST_ACC_R][RESERVATION_FAIL] = 0
	Total_core_cache_stats_breakdown[INST_ACC_R][SECTOR_MISS] = 0
	Total_core_cache_stats_breakdown[INST_ACC_R][MSHR_HIT] = 0
	Total_core_cache_stats_breakdown[L1_WR_ALLOC_R][HIT] = 0
	Total_core_cache_stats_breakdown[L1_WR_ALLOC_R][HIT_RESERVED] = 0
	Total_core_cache_stats_breakdown[L1_WR_ALLOC_R][MISS] = 0
	Total_core_cache_stats_breakdown[L1_WR_ALLOC_R][RESERVATION_FAIL] = 0
	Total_core_cache_stats_breakdown[L1_WR_ALLOC_R][SECTOR_MISS] = 0
	Total_core_cache_stats_breakdown[L1_WR_ALLOC_R][MSHR_HIT] = 0
	Total_core_cache_stats_breakdown[L2_WR_ALLOC_R][HIT] = 0
	Total_core_cache_stats_breakdown[L2_WR_ALLOC_R][HIT_RESERVED] = 0
	Total_core_cache_stats_breakdown[L2_WR_ALLOC_R][MISS] = 0
	Total_core_cache_stats_breakdown[L2_WR_ALLOC_R][RESERVATION_FAIL] = 0
	Total_core_cache_stats_breakdown[L2_WR_ALLOC_R][SECTOR_MISS] = 0
	Total_core_cache_stats_breakdown[L2_WR_ALLOC_R][MSHR_HIT] = 0
	Total_core_cache_stats_breakdown[GLOBAL_ACC_R][TOTAL_ACCESS] = 6193403
	Total_core_cache_stats_breakdown[GLOBAL_ACC_W][TOTAL_ACCESS] = 298325

Total_core_cache_fail_stats:
	Total_core_cache_fail_stats_breakdown[GLOBAL_ACC_R][MISS_QUEUE_FULL] = 203847
	Total_core_cache_fail_stats_breakdown[GLOBAL_ACC_R][MSHR_ENRTY_FAIL] = 2264443
	Total_core_cache_fail_stats_breakdown[GLOBAL_ACC_W][MISS_QUEUE_FULL] = 101
ctas_completed 1169, Shader 0 warp_id issue ditsribution:
warp_id:
0, 1, 2, 3, 4, 5, 6, 7, 8, 9, 10, 11, 12, 13, 14, 15, 16, 17, 18, 19, 20, 21, 22, 23, 24, 25, 26, 27, 28, 29, 30, 31, 
distro:
3792, 4767, 6652, 4507, 5092, 6327, 4962, 3727, 5937, 4442, 4767, 4442, 4962, 4312, 4114, 5222, 5337, 5600, 4105, 6055, 5727, 4820, 5535, 5210, 7095, 5015, 5207, 4734, 5272, 4300, 4690, 5857, 
gpgpu_n_tot_thrd_icount = 156373568
gpgpu_n_tot_w_icount = 4886674
gpgpu_n_stall_shd_mem = 2504043
gpgpu_n_mem_read_local = 0
gpgpu_n_mem_write_local = 0
gpgpu_n_mem_read_global = 2805996
gpgpu_n_mem_write_global = 298325
gpgpu_n_mem_texture = 0
gpgpu_n_mem_const = 0
gpgpu_n_load_insn  = 8635856
gpgpu_n_store_insn = 2213043
gpgpu_n_shmem_insn = 0
gpgpu_n_sstarr_insn = 0
gpgpu_n_tex_insn = 0
gpgpu_n_const_mem_insn = 0
gpgpu_n_param_mem_insn = 2394112
gpgpu_n_shmem_bkconflict = 0
gpgpu_n_cache_bkconflict = 0
gpgpu_n_intrawarp_mshr_merge = 0
gpgpu_n_cmem_portconflict = 0
gpgpu_stall_shd_mem[c_mem][resource_stall] = 0
gpgpu_stall_shd_mem[s_mem][bk_conf] = 0
gpgpu_stall_shd_mem[gl_mem][resource_stall] = 2212067
gpgpu_stall_shd_mem[gl_mem][coal_stall] = 291976
gpgpu_stall_shd_mem[gl_mem][data_port_stall] = 0
gpu_reg_bank_conflict_stalls = 0
Warp Occupancy Distribution:
Stall:575676	W0_Idle:445589	W0_Scoreboard:42195013	W1:1168320	W2:538647	W3:338948	W4:248663	W5:198845	W6:165388	W7:150028	W8:129399	W9:110047	W10:100901	W11:89779	W12:84250	W13:77654	W14:75692	W15:77427	W16:77136	W17:76115	W18:73562	W19:76868	W20:70240	W21:68497	W22:65768	W23:63929	W24:58960	W25:55848	W26:49035	W27:46758	W28:34012	W29:28957	W30:22214	W31:11040	W32:453747
single_issue_nums: WS0:1215606	WS1:1223287	WS2:1216993	WS3:1230788	
dual_issue_nums: WS0:0	WS1:0	WS2:0	WS3:0	
traffic_breakdown_coretomem[GLOBAL_ACC_R] = 22447968 {8:2805996,}
traffic_breakdown_coretomem[GLOBAL_ACC_W] = 11933000 {40:298325,}
traffic_breakdown_memtocore[GLOBAL_ACC_R] = 112239840 {40:2805996,}
traffic_breakdown_memtocore[GLOBAL_ACC_W] = 2386600 {8:298325,}
maxmflatency = 1255 
max_icnt2mem_latency = 855 
maxmrqlatency = 641 
max_icnt2sh_latency = 144 
averagemflatency = 372 
avg_icnt2mem_latency = 150 
avg_mrq_latency = 6 
avg_icnt2sh_latency = 5 
mrq_lat_table:383130 	6516 	9002 	17748 	40503 	12275 	5339 	3272 	820 	31 	0 	0 	0 	0 	0 	0 	0 	0 	0 	0 	0 	0 	0 	0 	0 	0 	0 	0 	0 	0 	0 	0 	
dq_lat_table:0 	0 	0 	0 	0 	0 	0 	0 	0 	0 	0 	0 	0 	0 	0 	0 	0 	0 	0 	0 	0 	0 	0 	0 	0 	0 	0 	0 	0 	0 	0 	0 	
mf_lat_table:0 	0 	0 	0 	0 	0 	0 	978982 	1515847 	609083 	409 	0 	0 	0 	0 	0 	0 	0 	0 	0 	0 	0 	0 	0 	0 	0 	0 	0 	0 	0 	0 	0 	
icnt2mem_lat_table:0 	0 	0 	0 	0 	1416492 	459455 	438488 	737219 	52667 	0 	0 	0 	0 	0 	0 	0 	0 	0 	0 	0 	0 	0 	0 	
icnt2sh_lat_table:0 	1740124 	803130 	401750 	130260 	26662 	2364 	31 	0 	0 	0 	0 	0 	0 	0 	0 	0 	0 	0 	0 	0 	0 	0 	0 	
mf_lat_pw_table:0 	0 	0 	0 	0 	0 	0 	25 	696 	87 	0 	0 	0 	0 	0 	0 	0 	0 	0 	0 	0 	0 	0 	0 	0 	0 	0 	0 	0 	0 	0 	0 	
maximum concurrent accesses to same row:
dram[0]:        64        64        64        64        47        32        54        26        31        23        40        36        26        35        32        32 
dram[1]:        64        64        64        64        49        63        53        37        40        35        31        46        40        26        36        43 
dram[2]:        64        64        64        64        44        54        30        34        51        34        31        36        25        27        32        32 
dram[3]:        64        64        64        64        32        45        43        33        54        46        48        38        44        28        34        41 
dram[4]:        64        64        64        64        49        36        24        22        27        27        36        26        35        35        32        32 
dram[5]:        64        64        64        64        43        32        29        30        50        39        44        39        24        25        32        32 
dram[6]:        64        64        64        64        32        34        57        34        36        35        41        35        30        23        32        32 
dram[7]:        64        64        64        64        32        32        52        59        31        31        25        42        39        34        36        36 
dram[8]:        64        64        60        64        37        44        60        34        40        43        60        33        31        30        36        42 
dram[9]:        64        64        64        64        39        59        49        64        44        36        36        46        36        44        36        36 
dram[10]:        64        64        64        60        32        39        64        37        48        42        19        43        22        34        36        36 
dram[11]:        64        64        62        64        32        46        49        53        36        32        27        30        49        43        42        36 
maximum service time to same row:
dram[0]:      5694      5755      5915      5925      6923      7105      6671      8034      6764      6728      6847      6738      6756      6761      5686      5747 
dram[1]:      5785      5877      5916      5926      6885      7068      6729      6738      6701      7682      6808      6803      6832      6740      5777      5869 
dram[2]:      5909      5909      7144      7805      6722      6700      6722      6728      6706      6694      6747      6832      6768      6753      5901      5900 
dram[3]:      5839      5725      5932      5916      9504      6697      6753      6708      6728      6717      6909      6892      6792      6802      5942      5717 
dram[4]:      5694      5755      5915      5925      6907      7116      6764      6697      6708      6752      6824      6832      6756      6788      5686      5747 
dram[5]:      5785      5877      5916      5926      6888      7050      7146      6740      6751      6743      6759      6757      6761      6729      5777      5869 
dram[6]:      5909      5909      5926      5925      8656      6900      6709      6694      6733      6717      6786      6758      6752      6714      5901      5900 
dram[7]:      6590      5726      5932      5917      6802      8205      6725      6721      6745      6744      6837      6761      6763      6757      5942      5717 
dram[8]:      5695      6213      5916      5926      6947      7477      6692      6706      6713      6715      6780      6766      6759      8365      5686      5747 
dram[9]:      6325      5878      5916      5927      6885      6995      7908      6686      6697      6714      6742      6806      6747      6756      5777      5869 
dram[10]:      5910      5909      5927      5926      8158      6747      6722      6702      6730      6708      6775      6777      6740      6757      5901      5900 
dram[11]:      6258      5725      6263      5916      6777      6776      6704      6692      6786      6753      6790      6839      6845      6768      5941      5716 
average row accesses per activate:
dram[0]:  1.856703  1.844789  1.810831  1.847793  1.914095  1.795235  1.739411  1.709335  1.644444  1.699258  1.680757  1.631039  1.764875  1.706931  1.721167  1.665404 
dram[1]:  1.900160  1.805128  1.870130  1.835677  1.806626  1.870655  1.747323  1.797935  1.787923  1.717568  1.625296  1.689005  1.709852  1.755682  1.679109  1.726009 
dram[2]:  1.885827  1.853734  1.816311  1.836310  1.857704  1.850769  1.690074  1.727209  1.691046  1.658986  1.645356  1.667937  1.680000  1.682686  1.677050  1.660026 
dram[3]:  1.872941  1.858020  1.747945  1.926435  1.934728  1.809414  1.738095  1.744847  1.743860  1.790133  1.700130  1.678043  1.661125  1.688459  1.712121  1.697439 
dram[4]:  1.835637  1.843093  1.861963  1.804049  1.827744  1.876176  1.677202  1.708104  1.718600  1.729673  1.629472  1.623109  1.693182  1.718792  1.719947  1.710688 
dram[5]:  1.890302  1.877857  1.805224  1.770938  1.844814  1.843653  1.721944  1.705683  1.759539  1.700740  1.660139  1.696710  1.720962  1.687136  1.710438  1.660424 
dram[6]:  1.855702  1.825660  1.831845  1.793377  1.857805  1.930486  1.718707  1.735315  1.731374  1.692892  1.675219  1.746767  1.627995  1.660702  1.673732  1.653459 
dram[7]:  1.867084  1.870399  1.860392  1.818513  1.826459  1.805638  1.681199  1.799548  1.710544  1.712905  1.652645  1.649134  1.752078  1.789017  1.682458  1.741762 
dram[8]:  1.838534  1.857143  1.736413  1.840892  1.824493  1.863457  1.801200  1.731385  1.680695  1.735664  1.685372  1.685039  1.684071  1.748796  1.686548  1.791279 
dram[9]:  1.929577  1.908293  1.831343  1.828700  1.828856  1.856471  1.721910  1.806402  1.703804  1.727462  1.690343  1.748133  1.713225  1.738621  1.745808  1.686364 
dram[10]:  1.861479  1.839342  1.822271  1.840875  1.841897  1.856138  1.760948  1.772299  1.744990  1.702027  1.669164  1.632865  1.693603  1.706458  1.701105  1.681197 
dram[11]:  1.899046  1.921053  1.824224  1.783394  1.777194  1.858156  1.756560  1.759286  1.680106  1.725572  1.704470  1.637601  1.722374  1.723861  1.666032  1.674792 
average row locality = 478636/273071 = 1.752790
number of total memory accesses made:
dram[0]:         0         0         0         0         0         0         0         0         0         0         0         0         0         0         0         0 
dram[1]:         0         0         0         0         0         0         0         0         0         0         0         0         0         0         0         0 
dram[2]:         0         0         0         0         0         0         0         0         0         0         0         0         0         0         0         0 
dram[3]:         0         0         0         0         0         0         0         0         0         0         0         0         0         0         0         0 
dram[4]:         0         0         0         0         0         0         0         0         0         0         0         0         0         0         0         0 
dram[5]:         0         0         0         0         0         0         0         0         0         0         0         0         0         0         0         0 
dram[6]:         0         0         0         0         0         0         0         0         0         0         0         0         0         0         0         0 
dram[7]:         0         0         0         0         0         0         0         0         0         0         0         0         0         0         0         0 
dram[8]:         0         0         0         0         0         0         0         0         0         0         0         0         0         0         0         0 
dram[9]:         0         0         0         0         0         0         0         0         0         0         0         0         0         0         0         0 
dram[10]:         0         0         0         0         0         0         0         0         0         0         0         0         0         0         0         0 
dram[11]:         0         0         0         0         0         0         0         0         0         0         0         0         0         0         0         0 
total accesses: 0
min_bank_accesses = 0!
min_chip_accesses = 0!
number of total read accesses:
dram[0]:      2365      2451      2393      2381      2248      2365      2381      2377      2481      2488      2632      2669      2430      2554      2505      2606 
dram[1]:      2334      2419      2400      2432      2299      2266      2407      2394      2396      2510      2718      2564      2502      2440      2532      2576 
dram[2]:      2350      2363      2424      2420      2315      2358      2461      2438      2441      2486      2696      2595      2488      2524      2606      2551 
dram[3]:      2343      2376      2504      2335      2265      2297      2366      2412      2452      2398      2576      2574      2566      2499      2567      2487 
dram[4]:      2345      2410      2380      2447      2352      2346      2453      2447      2471      2455      2655      2651      2501      2529      2572      2481 
dram[5]:      2332      2337      2371      2426      2282      2334      2368      2477      2412      2497      2596      2547      2472      2578      2508      2628 
dram[6]:      2346      2373      2414      2443      2357      2259      2458      2410      2500      2421      2645      2534      2550      2474      2574      2597 
dram[7]:      2342      2393      2324      2447      2299      2387      2422      2344      2450      2450      2561      2633      2498      2444      2596      2558 
dram[8]:      2311      2385      2508      2428      2291      2314      2358      2446      2483      2450      2641      2536      2516      2509      2626      2474 
dram[9]:      2283      2348      2406      2386      2337      2319      2409      2327      2476      2458      2681      2543      2507      2489      2571      2565 
dram[10]:      2346      2301      2423      2393      2283      2327      2412      2401      2491      2487      2642      2641      2483      2584      2586      2552 
dram[11]:      2343      2290      2422      2422      2324      2312      2368      2421      2510      2457      2523      2616      2493      2540      2592      2579 
total dram reads = 471156
bank skew: 2718/2248 = 1.21
chip skew: 39516/39017 = 1.01
number of total write accesses:
dram[0]:       180       180       192       188       188       184       168       160       140       128       128       128       128       128       128       128 
dram[1]:       180       180       192       192       184       192       164       176       128       128       128       128       128       128       128       128 
dram[2]:       180       180       192       192       192       192       168       176       132       136       128       128       128       128       128       128 
dram[3]:       180       180       192       192       188       192       172       172       132       132       128       128       128       128       128       128 
dram[4]:       180       180       192       192       184       192       164       160       132       136       128       128       128       128       128       128 
dram[5]:       184       184       192       192       192       192       164       176       128       128       128       128       128       128       128       128 
dram[6]:       184       184       192       192       188       184       164       168       132       128       128       128       128       128       128       128 
dram[7]:       184       184       192       192       192       188       184       176       128       128       128       128       128       128       128       128 
dram[8]:       184       184       192       192       192       188       172       168       132       128       128       128       128       128       128       128 
dram[9]:       184       180       192       192       184       192       172       172       128       132       128       128       128       128       128       128 
dram[10]:       184       184       192       192       188       188       164       172       136       128       128       128       128       128       128       128 
dram[11]:       184       184       192       192       180       184       168       168       128       132       128       128       128       128       128       128 
total dram writes = 29920
bank skew: 192/128 = 1.50
chip skew: 2516/2476 = 1.02
average mf latency per bank:
dram[0]:       2894      2565      2656      2587      2260      2221      2186      2158      1904      1864      1814      1705      1895      1655      2050      1968
dram[1]:       2831      2610      2680      2540      2256      2221      2150      2205      1904      1936      1642      1777      1692      1782      1942      1897
dram[2]:       2674      2751      2663      2639      2267      2377      2068      2031      1891      1960      1734      1798      1766      1768      1918      2034
dram[3]:       2897      2847      2548      2768      2457      2413      2083      2149      1949      2048      1776      1792      1703      1748      1957      2057
dram[4]:       2851      2846      2682      2488      2336      2319      2053      2104      2068      2019      1786      1617      1763      1729      2083      1993
dram[5]:       2801      2909      2630      2475      2273      2332      2088      2017      1971      1964      1627      1717      1794      1658      1951      1867
dram[6]:       2902      2649      2718      2524      2474      2498      2195      2175      1966      1958      1859      1881      1842      1780     30591      1779
dram[7]:       2678      2570      2803      2591      2345      2212      2153      2253      1863      1963      1808      1747      1840      1885      1956      2115
dram[8]:       2808      2827      2718      2585      2476      2314      2191      2080      1984      2034      1795      1783      1767      1702      2094      2052
dram[9]:       2969      2781      2536      2560      2190      2323      2104      2099      1866      1926      1668      1801      1707      1740      2023      2052
dram[10]:       2771      2841      2606      2629      2412      2320      2106      2023      2006      1883      1780      1685      1823      1694      1933      1999
dram[11]:       2677      2769      2634      2560      2305      2412      2156      2130      1919      1891      1748      1744      1656      1748      2003      2083
maximum mf latency per bank:
dram[0]:       1011      1014      1055      1020      1062      1022      1110       976       988      1030      1063      1024      1061      1054      1007      1012
dram[1]:        973      1114      1066      1154       999      1086      1047      1022       998       975      1089       967      1045      1039      1005      1119
dram[2]:       1023       994      1179      1255      1020      1047       986      1018      1043      1018      1085      1018      1039      1026      1049      1009
dram[3]:       1085       998      1042      1008      1130      1144      1036      1031      1038      1217      1090       999       993      1008      1098      1088
dram[4]:       1057      1112      1084      1046      1030      1015      1083      1051      1052       995      1040      1030      1015      1022       995       992
dram[5]:       1019      1050      1000      1148      1110      1151      1064      1003       965      1072       988      1006      1027      1044       965      1037
dram[6]:       1166      1000      1204      1240      1163      1042      1075      1045      1032      1023      1011      1040      1082       970      1081      1089
dram[7]:       1001      1085      1069      1079       990      1146      1076      1119      1029      1000       996       982      1061      1054      1128      1014
dram[8]:       1107      1065      1067      1020       973      1078      1036      1162      1050      1105      1071      1070      1047       966      1074      1075
dram[9]:       1040      1031      1053      1182       997      1010      1162      1059      1048      1082      1089      1061      1009       993      1003       976
dram[10]:       1066       994      1199      1242      1028      1109      1002       981      1070      1035      1099      1043      1016      1016      1005      1079
dram[11]:       1061      1004      1018      1176      1020      1057      1043      1008       998       988      1011       989      1066      1049      1014      1053
Memory Partition 0: 
Cache L2_bank_000:
MSHR contents

Cache L2_bank_001:
MSHR contents

In Dram Latency Queue (total = 0): 
DRAM[0]: 16 bks, busW=2 BL=16 CL=24, tRRD=12 tCCD=4, tRCD=24 tRAS=55 tRP=24 tRC=78
n_cmd=1051171 n_nop=965133 n_act=22886 n_pre=22870 n_ref_event=0 n_req=39945 n_rd=39326 n_rd_L2_A=0 n_write=0 n_wr_bk=2476 bw_util=0.1591
n_activity=907374 dram_eff=0.1843
bk0: 2365a 968816i bk1: 2451a 967197i bk2: 2393a 968263i bk3: 2381a 969328i bk4: 2248a 975719i bk5: 2365a 968532i bk6: 2381a 965675i bk7: 2377a 963221i bk8: 2481a 958189i bk9: 2488a 960157i bk10: 2632a 953504i bk11: 2669a 950422i bk12: 2430a 964571i bk13: 2554a 958303i bk14: 2505a 961809i bk15: 2606a 954889i 

------------------------------------------------------------------------

Row_Buffer_Locality = 0.427112
Row_Buffer_Locality_read = 0.430021
Row_Buffer_Locality_write = 0.242326
Bank_Level_Parallism = 2.019920
Bank_Level_Parallism_Col = 1.390785
Bank_Level_Parallism_Ready = 1.112766
write_to_read_ratio_blp_rw_average = 0.042657
GrpLevelPara = 1.289178 

BW Util details:
bwutil = 0.159068 
total_CMD = 1051171 
util_bw = 167208 
Wasted_Col = 372766 
Wasted_Row = 192311 
Idle = 318886 

BW Util Bottlenecks: 
RCDc_limit = 439906 
RCDWRc_limit = 5198 
WTRc_limit = 17353 
RTWc_limit = 11547 
CCDLc_limit = 24645 
rwq = 0 
CCDLc_limit_alone = 23123 
WTRc_limit_alone = 16411 
RTWc_limit_alone = 10967 

Commands details: 
total_CMD = 1051171 
n_nop = 965133 
Read = 39326 
Write = 0 
L2_Alloc = 0 
L2_WB = 2476 
n_act = 22886 
n_pre = 22870 
n_ref = 0 
n_req = 39945 
total_req = 41802 

Dual Bus Interface Util: 
issued_total_row = 45756 
issued_total_col = 41802 
Row_Bus_Util =  0.043529 
CoL_Bus_Util = 0.039767 
Either_Row_CoL_Bus_Util = 0.081850 
Issued_on_Two_Bus_Simul_Util = 0.001446 
issued_two_Eff = 0.017667 
queue_avg = 0.563100 


dram_util_bins: 0 0 0 0 0 0 0 0 0 0
dram_eff_bins: 0 0 0 0 0 0 0 0 0 0
mrqq: max=64 avg=0.5631
Memory Partition 1: 
Cache L2_bank_002:
MSHR contents

Cache L2_bank_003:
MSHR contents

In Dram Latency Queue (total = 0): 
DRAM[1]: 16 bks, busW=2 BL=16 CL=24, tRRD=12 tCCD=4, tRCD=24 tRAS=55 tRP=24 tRC=78
n_cmd=1051171 n_nop=965871 n_act=22566 n_pre=22550 n_ref_event=0 n_req=39810 n_rd=39189 n_rd_L2_A=0 n_write=0 n_wr_bk=2484 bw_util=0.1586
n_activity=900543 dram_eff=0.1851
bk0: 2334a 972903i bk1: 2419a 966430i bk2: 2400a 967496i bk3: 2432a 967070i bk4: 2299a 970294i bk5: 2266a 973391i bk6: 2407a 964607i bk7: 2394a 968734i bk8: 2396a 968249i bk9: 2510a 960748i bk10: 2718a 948445i bk11: 2564a 956911i bk12: 2502a 960353i bk13: 2440a 963622i bk14: 2532a 957333i bk15: 2576a 958756i 

------------------------------------------------------------------------

Row_Buffer_Locality = 0.433208
Row_Buffer_Locality_read = 0.436066
Row_Buffer_Locality_write = 0.252818
Bank_Level_Parallism = 2.024489
Bank_Level_Parallism_Col = 1.395157
Bank_Level_Parallism_Ready = 1.118866
write_to_read_ratio_blp_rw_average = 0.044337
GrpLevelPara = 1.294016 

BW Util details:
bwutil = 0.158577 
total_CMD = 1051171 
util_bw = 166692 
Wasted_Col = 368256 
Wasted_Row = 188294 
Idle = 327929 

BW Util Bottlenecks: 
RCDc_limit = 433048 
RCDWRc_limit = 4961 
WTRc_limit = 16903 
RTWc_limit = 11708 
CCDLc_limit = 25264 
rwq = 0 
CCDLc_limit_alone = 23568 
WTRc_limit_alone = 15878 
RTWc_limit_alone = 11037 

Commands details: 
total_CMD = 1051171 
n_nop = 965871 
Read = 39189 
Write = 0 
L2_Alloc = 0 
L2_WB = 2484 
n_act = 22566 
n_pre = 22550 
n_ref = 0 
n_req = 39810 
total_req = 41673 

Dual Bus Interface Util: 
issued_total_row = 45116 
issued_total_col = 41673 
Row_Bus_Util =  0.042920 
CoL_Bus_Util = 0.039644 
Either_Row_CoL_Bus_Util = 0.081148 
Issued_on_Two_Bus_Simul_Util = 0.001417 
issued_two_Eff = 0.017456 
queue_avg = 0.596645 


dram_util_bins: 0 0 0 0 0 0 0 0 0 0
dram_eff_bins: 0 0 0 0 0 0 0 0 0 0
mrqq: max=64 avg=0.596645
Memory Partition 2: 
Cache L2_bank_004:
MSHR contents

Cache L2_bank_005:
MSHR contents

In Dram Latency Queue (total = 0): 
DRAM[2]: 16 bks, busW=2 BL=16 CL=24, tRRD=12 tCCD=4, tRCD=24 tRAS=55 tRP=24 tRC=78
n_cmd=1051171 n_nop=964552 n_act=23128 n_pre=23112 n_ref_event=0 n_req=40143 n_rd=39516 n_rd_L2_A=0 n_write=0 n_wr_bk=2508 bw_util=0.1599
n_activity=908748 dram_eff=0.185
bk0: 2350a 970761i bk1: 2363a 970819i bk2: 2424a 965267i bk3: 2420a 965661i bk4: 2315a 970865i bk5: 2358a 970169i bk6: 2461a 961256i bk7: 2438a 962477i bk8: 2441a 961416i bk9: 2486a 958527i bk10: 2696a 950133i bk11: 2595a 954426i bk12: 2488a 957928i bk13: 2524a 956246i bk14: 2606a 953090i bk15: 2551a 955378i 

------------------------------------------------------------------------

Row_Buffer_Locality = 0.423885
Row_Buffer_Locality_read = 0.426232
Row_Buffer_Locality_write = 0.275917
Bank_Level_Parallism = 2.051571
Bank_Level_Parallism_Col = 1.389619
Bank_Level_Parallism_Ready = 1.093524
write_to_read_ratio_blp_rw_average = 0.043257
GrpLevelPara = 1.298600 

BW Util details:
bwutil = 0.159913 
total_CMD = 1051171 
util_bw = 168096 
Wasted_Col = 375000 
Wasted_Row = 190614 
Idle = 317461 

BW Util Bottlenecks: 
RCDc_limit = 443765 
RCDWRc_limit = 4897 
WTRc_limit = 17829 
RTWc_limit = 11769 
CCDLc_limit = 25119 
rwq = 0 
CCDLc_limit_alone = 23410 
WTRc_limit_alone = 16822 
RTWc_limit_alone = 11067 

Commands details: 
total_CMD = 1051171 
n_nop = 964552 
Read = 39516 
Write = 0 
L2_Alloc = 0 
L2_WB = 2508 
n_act = 23128 
n_pre = 23112 
n_ref = 0 
n_req = 40143 
total_req = 42024 

Dual Bus Interface Util: 
issued_total_row = 46240 
issued_total_col = 42024 
Row_Bus_Util =  0.043989 
CoL_Bus_Util = 0.039978 
Either_Row_CoL_Bus_Util = 0.082402 
Issued_on_Two_Bus_Simul_Util = 0.001565 
issued_two_Eff = 0.018991 
queue_avg = 0.611397 


dram_util_bins: 0 0 0 0 0 0 0 0 0 0
dram_eff_bins: 0 0 0 0 0 0 0 0 0 0
mrqq: max=64 avg=0.611397
Memory Partition 3: 
Cache L2_bank_006:
MSHR contents

Cache L2_bank_007:
MSHR contents

In Dram Latency Queue (total = 0): 
DRAM[3]: 16 bks, busW=2 BL=16 CL=24, tRRD=12 tCCD=4, tRCD=24 tRAS=55 tRP=24 tRC=78
n_cmd=1051171 n_nop=966168 n_act=22494 n_pre=22478 n_ref_event=0 n_req=39642 n_rd=39017 n_rd_L2_A=0 n_write=0 n_wr_bk=2500 bw_util=0.158
n_activity=903708 dram_eff=0.1838
bk0: 2343a 970382i bk1: 2376a 969547i bk2: 2504a 960878i bk3: 2335a 971649i bk4: 2265a 974513i bk5: 2297a 971238i bk6: 2366a 964937i bk7: 2412a 964450i bk8: 2452a 964348i bk9: 2398a 968195i bk10: 2576a 956585i bk11: 2574a 956184i bk12: 2566a 953917i bk13: 2499a 958775i bk14: 2567a 957634i bk15: 2487a 960174i 

------------------------------------------------------------------------

Row_Buffer_Locality = 0.432572
Row_Buffer_Locality_read = 0.435682
Row_Buffer_Locality_write = 0.238400
Bank_Level_Parallism = 2.014564
Bank_Level_Parallism_Col = 1.409607
Bank_Level_Parallism_Ready = 1.154828
write_to_read_ratio_blp_rw_average = 0.045286
GrpLevelPara = 1.293941 

BW Util details:
bwutil = 0.157984 
total_CMD = 1051171 
util_bw = 166068 
Wasted_Col = 368072 
Wasted_Row = 192800 
Idle = 324231 

BW Util Bottlenecks: 
RCDc_limit = 431232 
RCDWRc_limit = 5144 
WTRc_limit = 16101 
RTWc_limit = 12026 
CCDLc_limit = 24519 
rwq = 0 
CCDLc_limit_alone = 22917 
WTRc_limit_alone = 15234 
RTWc_limit_alone = 11291 

Commands details: 
total_CMD = 1051171 
n_nop = 966168 
Read = 39017 
Write = 0 
L2_Alloc = 0 
L2_WB = 2500 
n_act = 22494 
n_pre = 22478 
n_ref = 0 
n_req = 39642 
total_req = 41517 

Dual Bus Interface Util: 
issued_total_row = 44972 
issued_total_col = 41517 
Row_Bus_Util =  0.042783 
CoL_Bus_Util = 0.039496 
Either_Row_CoL_Bus_Util = 0.080865 
Issued_on_Two_Bus_Simul_Util = 0.001414 
issued_two_Eff = 0.017482 
queue_avg = 0.630838 


dram_util_bins: 0 0 0 0 0 0 0 0 0 0
dram_eff_bins: 0 0 0 0 0 0 0 0 0 0
mrqq: max=64 avg=0.630838
Memory Partition 4: 
Cache L2_bank_008:
MSHR contents

Cache L2_bank_009:
MSHR contents

In Dram Latency Queue (total = 0): 
DRAM[4]: 16 bks, busW=2 BL=16 CL=24, tRRD=12 tCCD=4, tRCD=24 tRAS=55 tRP=24 tRC=78
n_cmd=1051171 n_nop=964708 n_act=23021 n_pre=23005 n_ref_event=0 n_req=40115 n_rd=39495 n_rd_L2_A=0 n_write=0 n_wr_bk=2480 bw_util=0.1597
n_activity=908561 dram_eff=0.1848
bk0: 2345a 968744i bk1: 2410a 968344i bk2: 2380a 969275i bk3: 2447a 964566i bk4: 2352a 967405i bk5: 2346a 971263i bk6: 2453a 958898i bk7: 2447a 962286i bk8: 2471a 961549i bk9: 2455a 962832i bk10: 2655a 950482i bk11: 2651a 949884i bk12: 2501a 957571i bk13: 2529a 958878i bk14: 2572a 956394i bk15: 2481a 961005i 

------------------------------------------------------------------------

Row_Buffer_Locality = 0.426175
Row_Buffer_Locality_read = 0.429042
Row_Buffer_Locality_write = 0.243548
Bank_Level_Parallism = 2.045641
Bank_Level_Parallism_Col = 1.403839
Bank_Level_Parallism_Ready = 1.132257
write_to_read_ratio_blp_rw_average = 0.043997
GrpLevelPara = 1.296002 

BW Util details:
bwutil = 0.159727 
total_CMD = 1051171 
util_bw = 167900 
Wasted_Col = 373888 
Wasted_Row = 191321 
Idle = 318062 

BW Util Bottlenecks: 
RCDc_limit = 442069 
RCDWRc_limit = 4976 
WTRc_limit = 17381 
RTWc_limit = 12322 
CCDLc_limit = 24590 
rwq = 0 
CCDLc_limit_alone = 22971 
WTRc_limit_alone = 16440 
RTWc_limit_alone = 11644 

Commands details: 
total_CMD = 1051171 
n_nop = 964708 
Read = 39495 
Write = 0 
L2_Alloc = 0 
L2_WB = 2480 
n_act = 23021 
n_pre = 23005 
n_ref = 0 
n_req = 40115 
total_req = 41975 

Dual Bus Interface Util: 
issued_total_row = 46026 
issued_total_col = 41975 
Row_Bus_Util =  0.043785 
CoL_Bus_Util = 0.039932 
Either_Row_CoL_Bus_Util = 0.082254 
Issued_on_Two_Bus_Simul_Util = 0.001463 
issued_two_Eff = 0.017788 
queue_avg = 0.585630 


dram_util_bins: 0 0 0 0 0 0 0 0 0 0
dram_eff_bins: 0 0 0 0 0 0 0 0 0 0
mrqq: max=64 avg=0.58563
Memory Partition 5: 
Cache L2_bank_010:
MSHR contents

Cache L2_bank_011:
MSHR contents

In Dram Latency Queue (total = 1): 
Ready @ 409987 -   mf: uid=11183886, sid4294967295:w4294967295, part=5, addr=0xc0bc7580, store, size=128, L2_WRBK  status = IN_PARTITION_DRAM_LATENCY_QUEUE (409891), 
DRAM[5]: 16 bks, busW=2 BL=16 CL=24, tRRD=12 tCCD=4, tRCD=24 tRAS=55 tRP=24 tRC=78
n_cmd=1051171 n_nop=965464 n_act=22766 n_pre=22750 n_ref_event=0 n_req=39790 n_rd=39165 n_rd_L2_A=0 n_write=0 n_wr_bk=2500 bw_util=0.1585
n_activity=905681 dram_eff=0.184
bk0: 2332a 972198i bk1: 2337a 972286i bk2: 2371a 968025i bk3: 2426a 963997i bk4: 2282a 971303i bk5: 2334a 970254i bk6: 2368a 965870i bk7: 2477a 960534i bk8: 2412a 966408i bk9: 2497a 959836i bk10: 2596a 956147i bk11: 2547a 958669i bk12: 2472a 960961i bk13: 2578a 955726i bk14: 2508a 960374i bk15: 2628a 952072i 

------------------------------------------------------------------------

Row_Buffer_Locality = 0.427896
Row_Buffer_Locality_read = 0.431406
Row_Buffer_Locality_write = 0.208000
Bank_Level_Parallism = 2.016924
Bank_Level_Parallism_Col = 1.389081
Bank_Level_Parallism_Ready = 1.110763
write_to_read_ratio_blp_rw_average = 0.044897
GrpLevelPara = 1.293321 

BW Util details:
bwutil = 0.158547 
total_CMD = 1051171 
util_bw = 166660 
Wasted_Col = 372395 
Wasted_Row = 191612 
Idle = 320504 

BW Util Bottlenecks: 
RCDc_limit = 437922 
RCDWRc_limit = 5396 
WTRc_limit = 17249 
RTWc_limit = 12020 
CCDLc_limit = 24461 
rwq = 0 
CCDLc_limit_alone = 22968 
WTRc_limit_alone = 16397 
RTWc_limit_alone = 11379 

Commands details: 
total_CMD = 1051171 
n_nop = 965464 
Read = 39165 
Write = 0 
L2_Alloc = 0 
L2_WB = 2500 
n_act = 22766 
n_pre = 22750 
n_ref = 0 
n_req = 39790 
total_req = 41665 

Dual Bus Interface Util: 
issued_total_row = 45516 
issued_total_col = 41665 
Row_Bus_Util =  0.043300 
CoL_Bus_Util = 0.039637 
Either_Row_CoL_Bus_Util = 0.081535 
Issued_on_Two_Bus_Simul_Util = 0.001402 
issued_two_Eff = 0.017198 
queue_avg = 0.575973 


dram_util_bins: 0 0 0 0 0 0 0 0 0 0
dram_eff_bins: 0 0 0 0 0 0 0 0 0 0
mrqq: max=64 avg=0.575973
Memory Partition 6: 
Cache L2_bank_012:
MSHR contents

Cache L2_bank_013:
MSHR contents

In Dram Latency Queue (total = 0): 
DRAM[6]: 16 bks, busW=2 BL=16 CL=24, tRRD=12 tCCD=4, tRCD=24 tRAS=55 tRP=24 tRC=78
n_cmd=1051171 n_nop=964946 n_act=22924 n_pre=22908 n_ref_event=0 n_req=39976 n_rd=39355 n_rd_L2_A=0 n_write=0 n_wr_bk=2484 bw_util=0.1592
n_activity=913572 dram_eff=0.1832
bk0: 2346a 970609i bk1: 2373a 968848i bk2: 2414a 967486i bk3: 2443a 963651i bk4: 2357a 969893i bk5: 2259a 975646i bk6: 2458a 962308i bk7: 2410a 964709i bk8: 2500a 962500i bk9: 2421a 963690i bk10: 2645a 954057i bk11: 2534a 960638i bk12: 2550a 954321i bk13: 2474a 958290i bk14: 2574a 955325i bk15: 2597a 954145i 

------------------------------------------------------------------------

Row_Buffer_Locality = 0.426581
Row_Buffer_Locality_read = 0.429323
Row_Buffer_Locality_write = 0.252818
Bank_Level_Parallism = 2.026855
Bank_Level_Parallism_Col = 1.391360
Bank_Level_Parallism_Ready = 1.121188
write_to_read_ratio_blp_rw_average = 0.046609
GrpLevelPara = 1.287256 

BW Util details:
bwutil = 0.159209 
total_CMD = 1051171 
util_bw = 167356 
Wasted_Col = 374175 
Wasted_Row = 191969 
Idle = 317671 

BW Util Bottlenecks: 
RCDc_limit = 440964 
RCDWRc_limit = 4993 
WTRc_limit = 19389 
RTWc_limit = 13144 
CCDLc_limit = 23363 
rwq = 0 
CCDLc_limit_alone = 21492 
WTRc_limit_alone = 18229 
RTWc_limit_alone = 12433 

Commands details: 
total_CMD = 1051171 
n_nop = 964946 
Read = 39355 
Write = 0 
L2_Alloc = 0 
L2_WB = 2484 
n_act = 22924 
n_pre = 22908 
n_ref = 0 
n_req = 39976 
total_req = 41839 

Dual Bus Interface Util: 
issued_total_row = 45832 
issued_total_col = 41839 
Row_Bus_Util =  0.043601 
CoL_Bus_Util = 0.039802 
Either_Row_CoL_Bus_Util = 0.082028 
Issued_on_Two_Bus_Simul_Util = 0.001376 
issued_two_Eff = 0.016770 
queue_avg = 0.569294 


dram_util_bins: 0 0 0 0 0 0 0 0 0 0
[...]
total_req = 389353 

Dual Bus Interface Util: 
issued_total_row = 368260 
issued_total_col = 389353 
Row_Bus_Util =  0.043609 
CoL_Bus_Util = 0.046107 
Either_Row_CoL_Bus_Util = 0.088132 
Issued_on_Two_Bus_Simul_Util = 0.001584 
issued_two_Eff = 0.017977 
queue_avg = 2.424843 


dram_util_bins: 0 0 0 0 0 0 0 0 0 0
dram_eff_bins: 0 0 0 0 0 0 0 0 0 0
mrqq: max=64 avg=2.42484
Memory Partition 8: 
Cache L2_bank_016:
MSHR contents

Cache L2_bank_017:
MSHR contents

In Dram Latency Queue (total = 0): 
DRAM[8]: 16 bks, busW=2 BL=16 CL=24, tRRD=12 tCCD=4, tRCD=24 tRAS=55 tRP=24 tRC=78
n_cmd=8444546 n_nop=7706642 n_act=182948 n_pre=182932 n_ref_event=0 n_req=360663 n_rd=348832 n_rd_L2_A=0 n_write=0 n_wr_bk=36824 bw_util=0.1827
n_activity=7203698 dram_eff=0.2141
bk0: 20405a 7702739i bk1: 21199a 7678442i bk2: 21772a 7647617i bk3: 21830a 7644406i bk4: 20599a 7672975i bk5: 20364a 7694388i bk6: 21453a 7626382i bk7: 21965a 7602590i bk8: 21919a 7615802i bk9: 22082a 7610093i bk10: 23112a 7562119i bk11: 23270a 7568121i bk12: 22286a 7578751i bk13: 22075a 7607745i bk14: 22431a 7593908i bk15: 22070a 7602922i 

------------------------------------------------------------------------

Row_Buffer_Locality = 0.492751
Row_Buffer_Locality_read = 0.497853
Row_Buffer_Locality_write = 0.342321
Bank_Level_Parallism = 2.336115
Bank_Level_Parallism_Col = 1.719291
Bank_Level_Parallism_Ready = 1.230405
write_to_read_ratio_blp_rw_average = 0.093572
GrpLevelPara = 1.470172 

BW Util details:
bwutil = 0.182677 
total_CMD = 8444546 
util_bw = 1542624 
Wasted_Col = 2890103 
Wasted_Row = 1447012 
Idle = 2564807 

BW Util Bottlenecks: 
RCDc_limit = 3330110 
RCDWRc_limit = 71285 
WTRc_limit = 288008 
RTWc_limit = 276683 
CCDLc_limit = 241844 
rwq = 0 
CCDLc_limit_alone = 205723 
WTRc_limit_alone = 272593 
RTWc_limit_alone = 255977 

Commands details: 
total_CMD = 8444546 
n_nop = 7706642 
Read = 348832 
Write = 0 
L2_Alloc = 0 
L2_WB = 36824 
n_act = 182948 
n_pre = 182932 
n_ref = 0 
n_req = 360663 
total_req = 385656 

Dual Bus Interface Util: 
issued_total_row = 365880 
issued_total_col = 385656 
Row_Bus_Util =  0.043327 
CoL_Bus_Util = 0.045669 
Either_Row_CoL_Bus_Util = 0.087382 
Issued_on_Two_Bus_Simul_Util = 0.001614 
issued_two_Eff = 0.018474 
queue_avg = 2.384490 


dram_util_bins: 0 0 0 0 0 0 0 0 0 0
dram_eff_bins: 0 0 0 0 0 0 0 0 0 0
mrqq: max=64 avg=2.38449
Memory Partition 9: 
Cache L2_bank_018:
MSHR contents

Cache L2_bank_019:
MSHR contents

In Dram Latency Queue (total = 0): 
DRAM[9]: 16 bks, busW=2 BL=16 CL=24, tRRD=12 tCCD=4, tRCD=24 tRAS=55 tRP=24 tRC=78
n_cmd=8444546 n_nop=7700043 n_act=184118 n_pre=184102 n_ref_event=0 n_req=364437 n_rd=352477 n_rd_L2_A=0 n_write=0 n_wr_bk=36966 bw_util=0.1845
n_activity=7224635 dram_eff=0.2156
bk0: 20944a 7706414i bk1: 21427a 7659862i bk2: 21947a 7646466i bk3: 22205a 7633020i bk4: 21051a 7673295i bk5: 21172a 7661000i bk6: 21469a 7628629i bk7: 21853a 7631594i bk8: 22491a 7587269i bk9: 22192a 7621002i bk10: 23554a 7542414i bk11: 22840a 7578706i bk12: 22013a 7609918i bk13: 22407a 7593001i bk14: 22602a 7588351i bk15: 22310a 7606830i 

------------------------------------------------------------------------

Row_Buffer_Locality = 0.494793
Row_Buffer_Locality_read = 0.499777
Row_Buffer_Locality_write = 0.347910
Bank_Level_Parallism = 2.330463
Bank_Level_Parallism_Col = 1.716729
Bank_Level_Parallism_Ready = 1.230012
write_to_read_ratio_blp_rw_average = 0.092001
GrpLevelPara = 1.472490 

BW Util details:
bwutil = 0.184471 
total_CMD = 8444546 
util_bw = 1557772 
Wasted_Col = 2905811 
Wasted_Row = 1446412 
Idle = 2534551 

BW Util Bottlenecks: 
RCDc_limit = 3350528 
RCDWRc_limit = 70513 
WTRc_limit = 299578 
RTWc_limit = 274330 
CCDLc_limit = 241923 
rwq = 0 
CCDLc_limit_alone = 206548 
WTRc_limit_alone = 284112 
RTWc_limit_alone = 254421 

Commands details: 
total_CMD = 8444546 
n_nop = 7700043 
Read = 352477 
Write = 0 
L2_Alloc = 0 
L2_WB = 36966 
n_act = 184118 
n_pre = 184102 
n_ref = 0 
n_req = 364437 
total_req = 389443 

Dual Bus Interface Util: 
issued_total_row = 368220 
issued_total_col = 389443 
Row_Bus_Util =  0.043604 
CoL_Bus_Util = 0.046118 
Either_Row_CoL_Bus_Util = 0.088164 
Issued_on_Two_Bus_Simul_Util = 0.001558 
issued_two_Eff = 0.017676 
queue_avg = 2.389735 


dram_util_bins: 0 0 0 0 0 0 0 0 0 0
dram_eff_bins: 0 0 0 0 0 0 0 0 0 0
mrqq: max=64 avg=2.38973
Memory Partition 10: 
Cache L2_bank_020:
MSHR contents

Cache L2_bank_021:
MSHR contents

In Dram Latency Queue (total = 0): 
DRAM[10]: 16 bks, busW=2 BL=16 CL=24, tRRD=12 tCCD=4, tRCD=24 tRAS=55 tRP=24 tRC=78
n_cmd=8444546 n_nop=7700629 n_act=184411 n_pre=184395 n_ref_event=0 n_req=363199 n_rd=351299 n_rd_L2_A=0 n_write=0 n_wr_bk=37126 bw_util=0.184
n_activity=7217960 dram_eff=0.2153
bk0: 21313a 7673796i bk1: 20901a 7687131i bk2: 22044a 7629736i bk3: 21963a 7654457i bk4: 20893a 7676113i bk5: 20623a 7691504i bk6: 21699a 7643647i bk7: 21489a 7632792i bk8: 21886a 7652839i bk9: 21986a 7619062i bk10: 23555a 7536485i bk11: 23118a 7550549i bk12: 21939a 7617269i bk13: 22636a 7588677i bk14: 22772a 7584577i bk15: 22482a 7575482i 

------------------------------------------------------------------------

Row_Buffer_Locality = 0.492265
Row_Buffer_Locality_read = 0.497175
Row_Buffer_Locality_write = 0.347311
Bank_Level_Parallism = 2.324986
Bank_Level_Parallism_Col = 1.699821
Bank_Level_Parallism_Ready = 1.224594
write_to_read_ratio_blp_rw_average = 0.090804
GrpLevelPara = 1.466486 

BW Util details:
bwutil = 0.183989 
total_CMD = 8444546 
util_bw = 1553700 
Wasted_Col = 2908928 
Wasted_Row = 1441033 
Idle = 2540885 

BW Util Bottlenecks: 
RCDc_limit = 3361714 
RCDWRc_limit = 71096 
WTRc_limit = 302468 
RTWc_limit = 263430 
CCDLc_limit = 241379 
rwq = 0 
CCDLc_limit_alone = 207414 
WTRc_limit_alone = 286879 
RTWc_limit_alone = 245054 

Commands details: 
total_CMD = 8444546 
n_nop = 7700629 
Read = 351299 
Write = 0 
L2_Alloc = 0 
L2_WB = 37126 
n_act = 184411 
n_pre = 184395 
n_ref = 0 
n_req = 363199 
total_req = 388425 

Dual Bus Interface Util: 
issued_total_row = 368806 
issued_total_col = 388425 
Row_Bus_Util =  0.043674 
CoL_Bus_Util = 0.045997 
Either_Row_CoL_Bus_Util = 0.088094 
Issued_on_Two_Bus_Simul_Util = 0.001577 
issued_two_Eff = 0.017897 
queue_avg = 2.281847 


dram_util_bins: 0 0 0 0 0 0 0 0 0 0
dram_eff_bins: 0 0 0 0 0 0 0 0 0 0
mrqq: max=64 avg=2.28185
Memory Partition 11: 
Cache L2_bank_022:
MSHR contents

Cache L2_bank_023:
MSHR contents

In Dram Latency Queue (total = 0): 
DRAM[11]: 16 bks, busW=2 BL=16 CL=24, tRRD=12 tCCD=4, tRCD=24 tRAS=55 tRP=24 tRC=78
n_cmd=8444546 n_nop=7698516 n_act=185300 n_pre=185284 n_ref_event=0 n_req=363678 n_rd=351758 n_rd_L2_A=0 n_write=0 n_wr_bk=37003 bw_util=0.1841
n_activity=7245049 dram_eff=0.2146
bk0: 20925a 7680081i bk1: 21045a 7694079i bk2: 21434a 7671977i bk3: 21939a 7645160i bk4: 21269a 7638522i bk5: 21121a 7659390i bk6: 21264a 7626681i bk7: 21899a 7630992i bk8: 22136a 7607358i bk9: 22028a 7616721i bk10: 22486a 7592288i bk11: 23827a 7518980i bk12: 22409a 7597800i bk13: 22447a 7597500i bk14: 22963a 7561206i bk15: 22566a 7569829i 

------------------------------------------------------------------------

Row_Buffer_Locality = 0.490483
Row_Buffer_Locality_read = 0.495858
Row_Buffer_Locality_write = 0.331879
Bank_Level_Parallism = 2.330353
Bank_Level_Parallism_Col = 1.709220
Bank_Level_Parallism_Ready = 1.224832
write_to_read_ratio_blp_rw_average = 0.092770
GrpLevelPara = 1.468435 

BW Util details:
bwutil = 0.184148 
total_CMD = 8444546 
util_bw = 1555044 
Wasted_Col = 2925680 
Wasted_Row = 1454877 
Idle = 2508945 

BW Util Bottlenecks: 
RCDc_limit = 3376507 
RCDWRc_limit = 72535 
WTRc_limit = 297715 
RTWc_limit = 279140 
CCDLc_limit = 243029 
rwq = 0 
CCDLc_limit_alone = 207408 
WTRc_limit_alone = 281858 
RTWc_limit_alone = 259376 

Commands details: 
total_CMD = 8444546 
n_nop = 7698516 
Read = 351758 
Write = 0 
L2_Alloc = 0 
L2_WB = 37003 
n_act = 185300 
n_pre = 185284 
n_ref = 0 
n_req = 363678 
total_req = 388761 

Dual Bus Interface Util: 
issued_total_row = 370584 
issued_total_col = 388761 
Row_Bus_Util =  0.043884 
CoL_Bus_Util = 0.046037 
Either_Row_CoL_Bus_Util = 0.088345 
Issued_on_Two_Bus_Simul_Util = 0.001577 
issued_two_Eff = 0.017848 
queue_avg = 2.361283 


dram_util_bins: 0 0 0 0 0 0 0 0 0 0
dram_eff_bins: 0 0 0 0 0 0 0 0 0 0
mrqq: max=64 avg=2.36128

========= L2 cache stats =========
L2_cache_bank[0]: Access = 705185, Miss = 188189, Miss_rate = 0.267, Pending_hits = 1250, Reservation_fails = 87
L2_cache_bank[1]: Access = 681546, Miss = 190650, Miss_rate = 0.280, Pending_hits = 463, Reservation_fails = 531
L2_cache_bank[2]: Access = 686423, Miss = 188222, Miss_rate = 0.274, Pending_hits = 480, Reservation_fails = 555
L2_cache_bank[3]: Access = 690327, Miss = 189180, Miss_rate = 0.274, Pending_hits = 439, Reservation_fails = 0
L2_cache_bank[4]: Access = 686613, Miss = 188696, Miss_rate = 0.275, Pending_hits = 385, Reservation_fails = 0
L2_cache_bank[5]: Access = 707252, Miss = 189945, Miss_rate = 0.269, Pending_hits = 437, Reservation_fails = 902
L2_cache_bank[6]: Access = 703575, Miss = 190733, Miss_rate = 0.271, Pending_hits = 439, Reservation_fails = 388
L2_cache_bank[7]: Access = 706902, Miss = 188777, Miss_rate = 0.267, Pending_hits = 455, Reservation_fails = 162
L2_cache_bank[8]: Access = 706002, Miss = 189151, Miss_rate = 0.268, Pending_hits = 1356, Reservation_fails = 1491
L2_cache_bank[9]: Access = 691059, Miss = 188324, Miss_rate = 0.273, Pending_hits = 486, Reservation_fails = 735
L2_cache_bank[10]: Access = 686280, Miss = 190480, Miss_rate = 0.278, Pending_hits = 442, Reservation_fails = 565
L2_cache_bank[11]: Access = 682473, Miss = 189843, Miss_rate = 0.278, Pending_hits = 420, Reservation_fails = 67
L2_cache_bank[12]: Access = 2650925, Miss = 188485, Miss_rate = 0.071, Pending_hits = 421, Reservation_fails = 0
L2_cache_bank[13]: Access = 692699, Miss = 188686, Miss_rate = 0.272, Pending_hits = 335, Reservation_fails = 0
L2_cache_bank[14]: Access = 701534, Miss = 189079, Miss_rate = 0.270, Pending_hits = 428, Reservation_fails = 0
L2_cache_bank[15]: Access = 695738, Miss = 189716, Miss_rate = 0.273, Pending_hits = 487, Reservation_fails = 1038
L2_cache_bank[16]: Access = 711211, Miss = 187360, Miss_rate = 0.263, Pending_hits = 1264, Reservation_fails = 298
L2_cache_bank[17]: Access = 701401, Miss = 188134, Miss_rate = 0.268, Pending_hits = 436, Reservation_fails = 28
L2_cache_bank[18]: Access = 688039, Miss = 189379, Miss_rate = 0.275, Pending_hits = 476, Reservation_fails = 613
L2_cache_bank[19]: Access = 690945, Miss = 189633, Miss_rate = 0.274, Pending_hits = 405, Reservation_fails = 38
L2_cache_bank[20]: Access = 694771, Miss = 189419, Miss_rate = 0.273, Pending_hits = 416, Reservation_fails = 283
L2_cache_bank[21]: Access = 696362, Miss = 188575, Miss_rate = 0.271, Pending_hits = 424, Reservation_fails = 0
L2_cache_bank[22]: Access = 691770, Miss = 188134, Miss_rate = 0.272, Pending_hits = 406, Reservation_fails = 122
L2_cache_bank[23]: Access = 699991, Miss = 190138, Miss_rate = 0.272, Pending_hits = 439, Reservation_fails = 0
L2_total_cache_accesses = 18649023
L2_total_cache_misses = 4538928
L2_total_cache_miss_rate = 0.2434
L2_total_cache_pending_hits = 12989
L2_total_cache_reservation_fails = 7903
L2_total_cache_breakdown:
	L2_cache_stats_breakdown[GLOBAL_ACC_R][HIT] = 12004727
	L2_cache_stats_breakdown[GLOBAL_ACC_R][HIT_RESERVED] = 12989
	L2_cache_stats_breakdown[GLOBAL_ACC_R][MISS] = 1289702
	L2_cache_stats_breakdown[GLOBAL_ACC_R][RESERVATION_FAIL] = 7903
	L2_cache_stats_breakdown[GLOBAL_ACC_R][SECTOR_MISS] = 2929785
	L2_cache_stats_breakdown[GLOBAL_ACC_R][MSHR_HIT] = 12989
	L2_cache_stats_breakdown[LOCAL_ACC_R][HIT] = 0
	L2_cache_stats_breakdown[LOCAL_ACC_R][HIT_RESERVED] = 0
	L2_cache_stats_breakdown[LOCAL_ACC_R][MISS] = 0
	L2_cache_stats_breakdown[LOCAL_ACC_R][RESERVATION_FAIL] = 0
	L2_cache_stats_breakdown[LOCAL_ACC_R][SECTOR_MISS] = 0
	L2_cache_stats_breakdown[LOCAL_ACC_R][MSHR_HIT] = 0
	L2_cache_stats_breakdown[CONST_ACC_R][HIT] = 0
	L2_cache_stats_breakdown[CONST_ACC_R][HIT_RESERVED] = 0
	L2_cache_stats_breakdown[CONST_ACC_R][MISS] = 0
	L2_cache_stats_breakdown[CONST_ACC_R][RESERVATION_FAIL] = 0
	L2_cache_stats_breakdown[CONST_ACC_R][SECTOR_MISS] = 0
	L2_cache_stats_breakdown[CONST_ACC_R][MSHR_HIT] = 0
	L2_cache_stats_breakdown[TEXTURE_ACC_R][HIT] = 0
	L2_cache_stats_breakdown[TEXTURE_ACC_R][HIT_RESERVED] = 0
	L2_cache_stats_breakdown[TEXTURE_ACC_R][MISS] = 0
	L2_cache_stats_breakdown[TEXTURE_ACC_R][RESERVATION_FAIL] = 0
	L2_cache_stats_breakdown[TEXTURE_ACC_R][SECTOR_MISS] = 0
	L2_cache_stats_breakdown[TEXTURE_ACC_R][MSHR_HIT] = 0
	L2_cache_stats_breakdown[GLOBAL_ACC_W][HIT] = 2092379
	L2_cache_stats_breakdown[GLOBAL_ACC_W][HIT_RESERVED] = 0
	L2_cache_stats_breakdown[GLOBAL_ACC_W][MISS] = 83999
	L2_cache_stats_breakdown[GLOBAL_ACC_W][RESERVATION_FAIL] = 0
	L2_cache_stats_breakdown[GLOBAL_ACC_W][SECTOR_MISS] = 235442
	L2_cache_stats_breakdown[GLOBAL_ACC_W][MSHR_HIT] = 0
	L2_cache_stats_breakdown[LOCAL_ACC_W][HIT] = 0
	L2_cache_stats_breakdown[LOCAL_ACC_W][HIT_RESERVED] = 0
	L2_cache_stats_breakdown[LOCAL_ACC_W][MISS] = 0
	L2_cache_stats_breakdown[LOCAL_ACC_W][RESERVATION_FAIL] = 0
	L2_cache_stats_breakdown[LOCAL_ACC_W][SECTOR_MISS] = 0
	L2_cache_stats_breakdown[LOCAL_ACC_W][MSHR_HIT] = 0
	L2_cache_stats_breakdown[L1_WRBK_ACC][HIT] = 0
	L2_cache_stats_breakdown[L1_WRBK_ACC][HIT_RESERVED] = 0
	L2_cache_stats_breakdown[L1_WRBK_ACC][MISS] = 0
	L2_cache_stats_breakdown[L1_WRBK_ACC][RESERVATION_FAIL] = 0
	L2_cache_stats_breakdown[L1_WRBK_ACC][SECTOR_MISS] = 0
	L2_cache_stats_breakdown[L1_WRBK_ACC][MSHR_HIT] = 0
	L2_cache_stats_breakdown[L2_WRBK_ACC][HIT] = 0
	L2_cache_stats_breakdown[L2_WRBK_ACC][HIT_RESERVED] = 0
	L2_cache_stats_breakdown[L2_WRBK_ACC][MISS] = 0
	L2_cache_stats_breakdown[L2_WRBK_ACC][RESERVATION_FAIL] = 0
	L2_cache_stats_breakdown[L2_WRBK_ACC][SECTOR_MISS] = 0
	L2_cache_stats_breakdown[L2_WRBK_ACC][MSHR_HIT] = 0
	L2_cache_stats_breakdown[INST_ACC_R][HIT] = 0
	L2_cache_stats_breakdown[INST_ACC_R][HIT_RESERVED] = 0
	L2_cache_stats_breakdown[INST_ACC_R][MISS] = 0
	L2_cache_stats_breakdown[INST_ACC_R][RESERVATION_FAIL] = 0
	L2_cache_stats_breakdown[INST_ACC_R][SECTOR_MISS] = 0
	L2_cache_stats_breakdown[INST_ACC_R][MSHR_HIT] = 0
	L2_cache_stats_breakdown[L1_WR_ALLOC_R][HIT] = 0
	L2_cache_stats_breakdown[L1_WR_ALLOC_R][HIT_RESERVED] = 0
	L2_cache_stats_breakdown[L1_WR_ALLOC_R][MISS] = 0
	L2_cache_stats_breakdown[L1_WR_ALLOC_R][RESERVATION_FAIL] = 0
	L2_cache_stats_breakdown[L1_WR_ALLOC_R][SECTOR_MISS] = 0
	L2_cache_stats_breakdown[L1_WR_ALLOC_R][MSHR_HIT] = 0
	L2_cache_stats_breakdown[L2_WR_ALLOC_R][HIT] = 0
	L2_cache_stats_breakdown[L2_WR_ALLOC_R][HIT_RESERVED] = 0
	L2_cache_stats_breakdown[L2_WR_ALLOC_R][MISS] = 0
	L2_cache_stats_breakdown[L2_WR_ALLOC_R][RESERVATION_FAIL] = 0
	L2_cache_stats_breakdown[L2_WR_ALLOC_R][SECTOR_MISS] = 0
	L2_cache_stats_breakdown[L2_WR_ALLOC_R][MSHR_HIT] = 0
	L2_cache_stats_breakdown[GLOBAL_ACC_R][TOTAL_ACCESS] = 16237203
	L2_cache_stats_breakdown[GLOBAL_ACC_W][TOTAL_ACCESS] = 2411820
L2_total_cache_reservation_fail_breakdown:
	L2_cache_stats_fail_breakdown[GLOBAL_ACC_R][MSHR_MERGE_ENRTY_FAIL] = 7903
L2_cache_data_port_util = 0.179
L2_cache_fill_port_util = 0.053

icnt_total_pkts_mem_to_simt=18649023
icnt_total_pkts_simt_to_mem=18649023
LD_mem_lat_dist  0 0 0 0 0 0 0 0 0 0 0 0 0 0 0 0 0 0 0 0 0 0 0 0 0 0 0
ST_mem_lat_dist  0 0 0 0 0 0 0 0 0 0 0 0 0 0 0 0 0 0 0 0 0 0 0 0 0 0 0
----------------------------Interconnect-DETAILS--------------------------------
Req_Network_injected_packets_num = 18649023
Req_Network_cycles = 3292917
Req_Network_injected_packets_per_cycle =       5.6634 
Req_Network_conflicts_per_cycle =       6.2824
Req_Network_conflicts_per_cycle_util =       6.5805
Req_Bank_Level_Parallism =       5.9321
Req_Network_in_buffer_full_per_cycle =       0.0000
Req_Network_in_buffer_avg_util =      10.6009
Req_Network_out_buffer_full_per_cycle =       0.0000
Req_Network_out_buffer_avg_util =       0.2379

Reply_Network_injected_packets_num = 18649023
Reply_Network_cycles = 3292917
Reply_Network_injected_packets_per_cycle =        5.6634
Reply_Network_conflicts_per_cycle =        2.7625
Reply_Network_conflicts_per_cycle_util =       2.8918
Reply_Bank_Level_Parallism =       5.9286
Reply_Network_in_buffer_full_per_cycle =       0.0000
Reply_Network_in_buffer_avg_util =       0.3807
Reply_Network_out_buffer_full_per_cycle =       0.0000
Reply_Network_out_buffer_avg_util =       0.1888
----------------------------END-of-Interconnect-DETAILS-------------------------


gpgpu_simulation_time = 0 days, 1 hrs, 27 min, 18 sec (5238 sec)
gpgpu_simulation_rate = 62529 (inst/sec)
gpgpu_simulation_rate = 628 (cycle/sec)
gpgpu_silicon_slowdown = 2173566x
GPGPU-Sim PTX: Setting up arguments for 8 bytes starting at 0x7fff2726d738..
GPGPU-Sim PTX: Setting up arguments for 8 bytes starting at 0x7fff2726d730..
GPGPU-Sim PTX: Setting up arguments for 8 bytes starting at 0x7fff2726d728..
GPGPU-Sim PTX: Setting up arguments for 8 bytes starting at 0x7fff2726d720..
GPGPU-Sim PTX: Setting up arguments for 8 bytes starting at 0x7fff2726d718..
GPGPU-Sim PTX: Setting up arguments for 8 bytes starting at 0x7fff2726d710..
GPGPU-Sim PTX: Setting up arguments for 4 bytes starting at 0x7fff2726d7e0..
GPGPU-Sim PTX: Setting up arguments for 4 bytes starting at 0x7fff2726d7e8..
GPGPU-Sim PTX: Setting up arguments for 4 bytes starting at 0x7fff2726d7f0..

GPGPU-Sim PTX: cudaLaunch for 0x0x55f82d401ba0 (mode=performance simulation) on stream 0
GPGPU-Sim PTX: PDOM analysis already done for _Z6color1PiS_S_S_S_S_iii 
GPGPU-Sim PTX: pushing kernel '_Z6color1PiS_S_S_S_S_iii' to stream 0, gridDim= (1169,1,1) blockDim = (256,1,1) 
GPGPU-Sim uArch: Shader 5 bind to kernel 19 '_Z6color1PiS_S_S_S_S_iii'
GPGPU-Sim uArch: CTA/core = 4, limited by: threads
GPGPU-Sim: Reconfigure L1 cache to 64KB
GPGPU-Sim uArch: Shader 6 bind to kernel 19 '_Z6color1PiS_S_S_S_S_iii'
GPGPU-Sim uArch: Shader 7 bind to kernel 19 '_Z6color1PiS_S_S_S_S_iii'
GPGPU-Sim uArch: Shader 8 bind to kernel 19 '_Z6color1PiS_S_S_S_S_iii'
GPGPU-Sim uArch: Shader 9 bind to kernel 19 '_Z6color1PiS_S_S_S_S_iii'
GPGPU-Sim uArch: Shader 10 bind to kernel 19 '_Z6color1PiS_S_S_S_S_iii'
GPGPU-Sim uArch: Shader 11 bind to kernel 19 '_Z6color1PiS_S_S_S_S_iii'
GPGPU-Sim uArch: Shader 12 bind to kernel 19 '_Z6color1PiS_S_S_S_S_iii'
GPGPU-Sim uArch: Shader 13 bind to kernel 19 '_Z6color1PiS_S_S_S_S_iii'
GPGPU-Sim uArch: Shader 14 bind to kernel 19 '_Z6color1PiS_S_S_S_S_iii'
GPGPU-Sim uArch: Shader 15 bind to kernel 19 '_Z6color1PiS_S_S_S_S_iii'
GPGPU-Sim uArch: Shader 16 bind to kernel 19 '_Z6color1PiS_S_S_S_S_iii'
GPGPU-Sim uArch: Shader 17 bind to kernel 19 '_Z6color1PiS_S_S_S_S_iii'
GPGPU-Sim uArch: Shader 18 bind to kernel 19 '_Z6color1PiS_S_S_S_S_iii'
GPGPU-Sim uArch: Shader 19 bind to kernel 19 '_Z6color1PiS_S_S_S_S_iii'
GPGPU-Sim uArch: Shader 20 bind to kernel 19 '_Z6color1PiS_S_S_S_S_iii'
GPGPU-Sim uArch: Shader 21 bind to kernel 19 '_Z6color1PiS_S_S_S_S_iii'
GPGPU-Sim uArch: Shader 22 bind to kernel 19 '_Z6color1PiS_S_S_S_S_iii'
GPGPU-Sim uArch: Shader 23 bind to kernel 19 '_Z6color1PiS_S_S_S_S_iii'
GPGPU-Sim uArch: Shader 24 bind to kernel 19 '_Z6color1PiS_S_S_S_S_iii'
GPGPU-Sim uArch: Shader 25 bind to kernel 19 '_Z6color1PiS_S_S_S_S_iii'
GPGPU-Sim uArch: Shader 26 bind to kernel 19 '_Z6color1PiS_S_S_S_S_iii'
GPGPU-Sim uArch: Shader 27 bind to kernel 19 '_Z6color1PiS_S_S_S_S_iii'
GPGPU-Sim uArch: Shader 28 bind to kernel 19 '_Z6color1PiS_S_S_S_S_iii'
GPGPU-Sim uArch: Shader 29 bind to kernel 19 '_Z6color1PiS_S_S_S_S_iii'
GPGPU-Sim uArch: Shader 0 bind to kernel 19 '_Z6color1PiS_S_S_S_S_iii'
GPGPU-Sim uArch: Shader 1 bind to kernel 19 '_Z6color1PiS_S_S_S_S_iii'
GPGPU-Sim uArch: Shader 2 bind to kernel 19 '_Z6color1PiS_S_S_S_S_iii'
GPGPU-Sim uArch: Shader 3 bind to kernel 19 '_Z6color1PiS_S_S_S_S_iii'
GPGPU-Sim uArch: Shader 4 bind to kernel 19 '_Z6color1PiS_S_S_S_S_iii'
